Compound_26-7L14
                    3D
 Structure written by MMmdl.
 53 57  0  0  1  0            999 V2000
   10.5027    2.4470   22.1630 C   0  0  0  0  0  0
    7.6469   -1.4052   18.7114 C   0  0  0  0  0  0
    8.7243   -2.6495   17.0715 C   0  0  0  0  0  0
    8.8132   -0.6609   20.7236 N   0  0  0  0  0  0
    8.8202   -1.3056   19.4695 C   0  0  0  0  0  0
    6.6240    0.0620   24.9415 C   0  0  0  0  0  0
    5.9073   -0.2975   26.0783 C   0  0  0  0  0  0
    5.8936   -1.6221   26.4963 C   0  0  0  0  0  0
    6.5846   -2.6030   25.7892 C   0  0  0  0  0  0
    6.8960   -4.9801   25.4501 C   0  0  0  0  0  0
    6.5153   -6.2694   26.1907 C   0  0  0  0  0  0
    7.3215   -2.2267   24.6553 C   0  0  0  0  0  0
    9.5455    0.5014   20.8708 C   0  0  0  0  0  0
   11.5476    4.5285   21.4191 C   0  0  0  0  0  0
   12.2361    4.6284   22.6241 C   0  0  0  0  0  0
    7.3504   -0.8919   24.2126 C   0  0  0  0  0  0
    8.1674   -0.4603   23.0418 C   0  0  0  0  0  0
   12.0443    3.6695   23.6110 C   0  0  0  0  0  0
   11.1873    2.5964   23.3795 C   0  0  0  0  0  0
    8.8805    0.6957   23.1260 C   0  0  0  0  0  0
    8.1489   -1.2421   21.7873 C   0  0  0  0  0  0
   10.6764    3.4583   21.1821 C   0  0  0  0  0  0
    9.9358    3.4844   19.9301 C   0  0  0  0  0  0
    5.0959   -6.7612   26.0682 C   0  0  0  0  0  0
    6.2220   -7.5151   25.3900 C   0  0  0  0  0  0
    9.9366   -2.5926   17.7595 C   0  0  0  0  0  0
    9.9867   -1.9004   18.9701 C   0  0  0  0  0  0
    9.6457    1.2291   22.0060 C   0  0  0  0  0  0
    7.5907   -2.0572   17.5238 N   0  0  0  0  0  0
    9.3464    3.5023   18.9368 N   0  0  0  0  0  0
    7.5846   -2.3380   21.6966 O   0  0  0  0  0  0
    6.4904   -3.8917   26.2733 O   0  0  0  0  0  0
    5.0440    0.8963   26.9709 Cl  0  0  0  0  0  0
    6.7220   -0.9710   19.0640 H   0  0  0  0  0  0
    8.6481   -3.1831   16.1363 H   0  0  0  0  0  0
    6.6184    1.0980   24.6320 H   0  0  0  0  0  0
    5.3155   -1.8956   27.3618 H   0  0  0  0  0  0
    6.4043   -4.9263   24.4765 H   0  0  0  0  0  0
    7.9735   -4.9534   25.2864 H   0  0  0  0  0  0
    7.0172   -6.3865   27.1512 H   0  0  0  0  0  0
    7.8930   -2.9687   24.1195 H   0  0  0  0  0  0
   10.0756    0.7628   19.9640 H   0  0  0  0  0  0
   11.6918    5.3056   20.6790 H   0  0  0  0  0  0
   12.9041    5.4594   22.8027 H   0  0  0  0  0  0
   12.5621    3.7538   24.5544 H   0  0  0  0  0  0
   11.0825    1.8576   24.1614 H   0  0  0  0  0  0
    8.8530    1.2671   24.0417 H   0  0  0  0  0  0
    4.3902   -6.2010   25.4529 H   0  0  0  0  0  0
    4.6343   -7.1822   26.9588 H   0  0  0  0  0  0
    6.5196   -8.4826   25.7979 H   0  0  0  0  0  0
    6.3084   -7.4749   24.3050 H   0  0  0  0  0  0
   10.8166   -3.0771   17.3625 H   0  0  0  0  0  0
   10.9134   -1.8501   19.5228 H   0  0  0  0  0  0
  1 19  1  0  0  0
  1 22  2  0  0  0
  1 28  1  0  0  0
  2  5  1  0  0  0
  2 29  2  0  0  0
  2 34  1  0  0  0
  3 26  2  0  0  0
  3 29  1  0  0  0
  3 35  1  0  0  0
  4  5  1  0  0  0
  4 13  1  0  0  0
  4 21  1  0  0  0
  5 27  2  0  0  0
  6  7  1  0  0  0
  6 16  2  0  0  0
  6 36  1  0  0  0
  7  8  2  0  0  0
  7 33  1  0  0  0
  8  9  1  0  0  0
  8 37  1  0  0  0
  9 12  2  0  0  0
  9 32  1  0  0  0
 10 11  1  0  0  0
 10 32  1  0  0  0
 10 38  1  0  0  0
 10 39  1  0  0  0
 11 24  1  0  0  0
 11 25  1  0  0  0
 11 40  1  0  0  0
 12 16  1  0  0  0
 12 41  1  0  0  0
 13 28  2  0  0  0
 13 42  1  0  0  0
 14 15  2  0  0  0
 14 22  1  0  0  0
 14 43  1  0  0  0
 15 18  1  0  0  0
 15 44  1  0  0  0
 16 17  1  0  0  0
 17 20  2  0  0  0
 17 21  1  0  0  0
 18 19  2  0  0  0
 18 45  1  0  0  0
 19 46  1  0  0  0
 20 28  1  0  0  0
 20 47  1  0  0  0
 21 31  2  0  0  0
 22 23  1  0  0  0
 23 30  3  0  0  0
 24 25  1  0  0  0
 24 48  1  0  0  0
 24 49  1  0  0  0
 25 50  1  0  0  0
 25 51  1  0  0  0
 26 27  1  0  0  0
 26 52  1  0  0  0
 27 53  1  0  0  0
M  END
> <s_m_entry_id>
1537

> <s_m_entry_name>
7l14.1_ligand

> <s_m_Source_Path>
/home/iakrani/Data_2/Ifigeneia/Mpro_water_data/Perampanel_analogue_structures

> <s_m_Source_File>
7l14_minimized.mae

> <i_m_Source_File_Index>
1

> <s_pdb_PDB_TITLE>
CRYSTAL STRUCTURE OF THE SARS-COV-2(2019-NCOV) MAIN PROTEASE IN COMPLEX WITH COMPOUND 26

> <s_pdb_PDB_ID>
7L14

> <r_pdb_PDB_CRYST1_a>
68.111

> <r_pdb_PDB_CRYST1_b>
100.59

> <r_pdb_PDB_CRYST1_c>
104.02

> <r_pdb_PDB_CRYST1_alpha>
90

> <r_pdb_PDB_CRYST1_beta>
90

> <r_pdb_PDB_CRYST1_gamma>
90

> <s_pdb_PDB_CRYST1_Space_Group>
P 21 21 21

> <i_pdb_PDB_CRYST1_z>
8

> <s_pdb_PDB_CLASSIFICATION>
VIRAL PROTEIN, HYDROLASE

> <s_pdb_PDB_DEPOSITION_DATE>
14-DEC-20

> <s_pdb_PDB_format_version>
3.30

> <r_pdb_PDB_R>
0.175999999046326

> <r_pdb_PDB_Rfree>
0.203999996185303

> <r_pdb_PDB_RESOLUTION>
1.8

> <s_pdb_PDB_EXPDTA>
X-RAY DIFFRACTION

> <r_pdb_PDB_EXPDTA_TEMPERATURE>
210

> <s_pdb_PDB_REMARK_350_Biomolecule_1_Chains>
A, B

> <s_pdb_PDB_REMARK_350_Biomolecule_1_Transformation_1>
1.000000 0.000000 0.000000   0.000000;0.000000 1.000000 0.000000   0.000000;0.000000 0.000000 1.000000   0.000000

> <s_ppw_entry_id_backup>
97

> <b_ppw_prepared>
1

> <s_ppw_prepared_with_version>
2018-1

> <b_ppw_assigned_bond_orders>
1

> <b_ppw_added_hydrogens>
1

> <b_ppw_treated_metals>
1

> <b_ppw_created_disulfur>
1

> <b_ppw_deleted_far_waters>
1

> <b_ppw_ran_protassign>
1

> <b_ppw_removed_non_hbond_waters>
1

> <r_i_Potential_Energy-OPLS3>
-2958.2994822091

> <r_i_RMS_Derivative-OPLS3>
0.10888819660391

> <r_i_Max_Derivative-OPLS3>
7.24568422055644

> <r_i_Stretch_Energy-OPLS3>
281.81314022336

> <r_i_Bend_Energy-OPLS3>
1159.72297867912

> <r_i_LJ-14_Energy-OPLS3>
2830.22049122915

> <r_i_El-14_Energy-OPLS3>
1107.61951187157

> <r_i_Van_der_Waals_Energy-OPLS3>
-5945.28014408945

> <r_i_Electrostatic_Energy-OPLS3>
-3356.90410034223

> <r_i_Dihedral_Energy-OPLS3>
910.74561503165

> <r_i_target_temperature>
298

> <b_ppw_ran_impref>
1

> <s_m_subgroup_title>
Crystallographic_analogues

> <s_m_subgroupid>
Crystallographic_analogues

> <b_m_subgroup_collapsed>
0

$$$$
