Compound_15-7M8Y
                    3D
 Structure written by MMmdl.
 57 61  0  0  1  0            999 V2000
    8.2406   -1.3381   21.5696 C   0  0  0  0  0  0
    8.3431   -0.4964   22.7826 C   0  0  0  0  0  0
    7.6183   -0.9025   24.0227 C   0  0  0  0  0  0
    6.8592    0.0365   24.7381 C   0  0  0  0  0  0
    6.1283   -0.3388   25.8637 C   0  0  0  0  0  0
    6.1428   -1.6623   26.2959 C   0  0  0  0  0  0
    7.7119   -2.4552   21.5775 O   0  0  0  0  0  0
    6.8906   -3.9425   25.9519 O   0  0  0  0  0  0
    6.8974   -2.6138   25.6035 C   0  0  0  0  0  0
    5.6056   -4.5655   25.9614 C   0  0  0  0  0  0
    5.6734   -5.9570   25.3157 C   0  0  0  0  0  0
    9.6359    3.2807   19.3662 O   0  0  0  0  0  0
   12.5655    5.8546   21.5060 O   0  0  0  0  0  0
    6.6325   -6.9015   26.0207 C   0  0  0  0  0  0
    6.1569   -7.7506   27.0206 C   0  0  0  0  0  0
    7.0354   -8.6019   27.6845 C   0  0  0  0  0  0
    8.3861   -8.6008   27.3442 C   0  0  0  0  0  0
    8.8634   -7.7662   26.3359 C   0  0  0  0  0  0
    7.9848   -6.9146   25.6721 C   0  0  0  0  0  0
    7.6537   -2.2217   24.5010 C   0  0  0  0  0  0
    9.0038    0.6935   22.7443 C   0  0  0  0  0  0
    9.6249    1.2028   21.5241 C   0  0  0  0  0  0
   10.3871    2.4586   21.4974 C   0  0  0  0  0  0
   10.3342    3.4071   20.3720 C   0  0  0  0  0  0
   11.1381    2.8384   22.5672 C   0  0  0  0  0  0
   11.9203    4.8152   21.6200 C   0  0  0  0  0  0
    9.4436    0.4173   20.4377 C   0  0  0  0  0  0
    8.6365   -1.4621   19.1981 C   0  0  0  0  0  0
    9.6342   -2.3380   18.7532 C   0  0  0  0  0  0
    9.4394   -3.0469   17.5659 C   0  0  0  0  0  0
    8.2578   -2.8425   16.8522 C   0  0  0  0  0  0
    7.4811   -1.3125   18.4201 C   0  0  0  0  0  0
   11.1364    4.5022   20.5419 N   0  0  0  0  0  0
   11.9123    3.9964   22.6631 N   0  5  0  0  0  0
    8.7673   -0.7822   20.4229 N   0  0  0  0  0  0
    7.2846   -1.9873   17.2586 N   0  0  0  0  0  0
    5.1784    0.8300   26.7010 Cl  0  0  0  0  0  0
    6.8055    1.0624   24.4029 H   0  0  0  0  0  0
    5.5561   -1.9548   27.1527 H   0  0  0  0  0  0
    4.8698   -3.9809   25.4101 H   0  0  0  0  0  0
    5.2335   -4.6377   26.9803 H   0  0  0  0  0  0
    5.9600   -5.8605   24.2695 H   0  0  0  0  0  0
    4.6773   -6.4007   25.2991 H   0  0  0  0  0  0
    5.1084   -7.7493   27.2781 H   0  0  0  0  0  0
    6.6722   -9.2605   28.4588 H   0  0  0  0  0  0
    9.0680   -9.2600   27.8606 H   0  0  0  0  0  0
    9.9107   -7.7757   26.0728 H   0  0  0  0  0  0
    8.3543   -6.2610   24.8953 H   0  0  0  0  0  0
    8.2364   -2.9722   23.9866 H   0  0  0  0  0  0
    9.0327    1.3116   23.6307 H   0  0  0  0  0  0
   11.1887    2.1881   23.4280 H   0  0  0  0  0  0
    9.8478    0.6732   19.4682 H   0  0  0  0  0  0
   10.5352   -2.4879   19.3299 H   0  0  0  0  0  0
   10.1808   -3.7478   17.2106 H   0  0  0  0  0  0
    8.0699   -3.3922   15.9421 H   0  0  0  0  0  0
    6.6783   -0.6605   18.7314 H   0  0  0  0  0  0
   11.1372    5.1795   19.7950 H   0  0  0  0  0  0
  1  2  1  0  0  0
  1  7  2  0  0  0
  1 35  1  0  0  0
  2  3  1  0  0  0
  2 21  2  0  0  0
  3  4  1  0  0  0
  3 20  2  0  0  0
  4  5  2  0  0  0
  4 38  1  0  0  0
  5  6  1  0  0  0
  5 37  1  0  0  0
  6  9  2  0  0  0
  6 39  1  0  0  0
  8  9  1  0  0  0
  8 10  1  0  0  0
  9 20  1  0  0  0
 10 11  1  0  0  0
 10 40  1  0  0  0
 10 41  1  0  0  0
 11 14  1  0  0  0
 11 42  1  0  0  0
 11 43  1  0  0  0
 12 24  2  0  0  0
 13 26  2  0  0  0
 14 15  1  0  0  0
 14 19  2  0  0  0
 15 16  2  0  0  0
 15 44  1  0  0  0
 16 17  1  0  0  0
 16 45  1  0  0  0
 17 18  2  0  0  0
 17 46  1  0  0  0
 18 19  1  0  0  0
 18 47  1  0  0  0
 19 48  1  0  0  0
 20 49  1  0  0  0
 21 22  1  0  0  0
 21 50  1  0  0  0
 22 23  1  0  0  0
 22 27  2  0  0  0
 23 24  1  0  0  0
 23 25  2  0  0  0
 24 33  1  0  0  0
 25 34  1  0  0  0
 25 51  1  0  0  0
 26 33  1  0  0  0
 26 34  1  0  0  0
 27 35  1  0  0  0
 27 52  1  0  0  0
 28 29  1  0  0  0
 28 32  2  0  0  0
 28 35  1  0  0  0
 29 30  2  0  0  0
 29 53  1  0  0  0
 30 31  1  0  0  0
 30 54  1  0  0  0
 31 36  2  0  0  0
 31 55  1  0  0  0
 32 36  1  0  0  0
 32 56  1  0  0  0
 33 57  1  0  0  0
M  CHG  1  34  -1
M  END
> <s_m_entry_id>
1554

> <s_m_entry_name>
7m8y.1_ligand

> <s_m_Source_Path>
/home/iakrani/Data_2/Ifigeneia/Mpro_water_data/Perampanel_analogue_structures

> <s_m_Source_File>
7m8y_minimized.mae

> <i_m_Source_File_Index>
1

> <s_pdb_PDB_TITLE>
CRYSTAL STRUCTURE OF THE SARS-COV-2(2019-NCOV) MAIN PROTEASE IN COMPLEX WITH COMPOUND 15

> <s_pdb_PDB_ID>
7M8Y

> <r_pdb_PDB_CRYST1_a>
115.371

> <r_pdb_PDB_CRYST1_b>
53.545

> <r_pdb_PDB_CRYST1_c>
44.719

> <r_pdb_PDB_CRYST1_alpha>
90

> <r_pdb_PDB_CRYST1_beta>
103.2

> <r_pdb_PDB_CRYST1_gamma>
90

> <s_pdb_PDB_CRYST1_Space_Group>
C 1 2 1

> <i_pdb_PDB_CRYST1_z>
4

> <s_pdb_PDB_CLASSIFICATION>
VIRAL PROTEIN, HYDROLASE

> <s_pdb_PDB_DEPOSITION_DATE>
30-MAR-21

> <s_pdb_PDB_format_version>
3.30

> <r_pdb_PDB_R>
0.194999992847443

> <r_pdb_PDB_Rfree>
0.228000000119209

> <r_pdb_PDB_RESOLUTION>
1.75

> <s_pdb_PDB_EXPDTA>
X-RAY DIFFRACTION

> <r_pdb_PDB_EXPDTA_TEMPERATURE>
100

> <s_pdb_PDB_REMARK_350_Biomolecule_1_Chains>
A

> <s_pdb_PDB_REMARK_350_Biomolecule_1_Transformation_1>
1.000000 0.000000 0.000000   0.000000;0.000000 1.000000 0.000000   0.000000;0.000000 0.000000 1.000000   0.000000

> <s_ppw_entry_id_backup>
76

> <b_ppw_prepared>
1

> <s_ppw_prepared_with_version>
2018-1

> <b_ppw_assigned_bond_orders>
1

> <b_ppw_added_hydrogens>
1

> <b_ppw_treated_metals>
1

> <b_ppw_created_disulfur>
1

> <b_ppw_deleted_far_waters>
1

> <b_ppw_ran_protassign>
1

> <b_ppw_removed_non_hbond_waters>
1

> <r_i_Potential_Energy-OPLS3>
-1346.47029511251

> <r_i_RMS_Derivative-OPLS3>
0.0712085417434219

> <r_i_Max_Derivative-OPLS3>
1.22904900512305

> <r_i_Stretch_Energy-OPLS3>
140.412876587756

> <r_i_Bend_Energy-OPLS3>
581.363101787571

> <r_i_LJ-14_Energy-OPLS3>
1430.15323491068

> <r_i_El-14_Energy-OPLS3>
526.911259162773

> <r_i_Van_der_Waals_Energy-OPLS3>
-2870.14077957542

> <r_i_Electrostatic_Energy-OPLS3>
-1640.73998746309

> <r_i_Dihedral_Energy-OPLS3>
456.879092762699

> <r_i_target_temperature>
298

> <b_ppw_ran_impref>
1

> <s_pdb_PDB_REMARK_350_Biomolecule_1_Transformation_2>
-1.000000 0.000000 0.000000   -10.211620;0.000000 1.000000 0.000000   0.000000;0.000000 0.000000 -1.000000   43.537470

> <s_m_subgroup_title>
Crystallographic_analogues

> <s_m_subgroupid>
Crystallographic_analogues

> <b_m_subgroup_collapsed>
0

$$$$
