Compound_23-7M8P
                    3D
 Structure written by MMmdl.
 55 59  0  0  1  0            999 V2000
   12.0974    4.6832   21.7816 C   0  0  0  0  0  0
    9.4831    0.3734   20.5468 C   0  0  0  0  0  0
    8.7108   -1.4915   19.2713 C   0  0  0  0  0  0
    8.4384   -2.9097   16.9347 C   0  0  0  0  0  0
    9.5930   -3.0921   17.6982 C   0  0  0  0  0  0
    9.7337   -2.3648   18.8816 C   0  0  0  0  0  0
    7.4199   -2.2111   24.5008 C   0  0  0  0  0  0
    6.6421   -2.5903   25.6053 C   0  0  0  0  0  0
    7.2155   -4.9465   25.4227 C   0  0  0  0  0  0
    5.7366   -6.7959   26.3764 C   0  0  0  0  0  0
    5.5726   -7.9373   27.1636 C   0  0  0  0  0  0
    6.6659   -8.5098   27.8112 C   0  0  0  0  0  0
    8.1031   -6.8071   26.8810 C   0  0  0  0  0  0
    5.8888   -1.6172   26.2624 C   0  0  0  0  0  0
    5.9025   -0.2939   25.8264 C   0  0  0  0  0  0
    7.5924   -1.3567   18.4414 C   0  0  0  0  0  0
    8.1428   -1.3281   21.6027 C   0  0  0  0  0  0
    6.6683    0.0656   24.7197 C   0  0  0  0  0  0
    7.0093   -6.2186   26.2346 C   0  0  0  0  0  0
    7.9322   -7.9469   27.6663 C   0  0  0  0  0  0
    7.4282   -0.8889   24.0282 C   0  0  0  0  0  0
    8.2158   -0.4935   22.8233 C   0  0  0  0  0  0
    8.9216    0.6704   22.8257 C   0  0  0  0  0  0
    9.6242    1.1561   21.6401 C   0  0  0  0  0  0
   10.4302    2.3816   21.6485 C   0  0  0  0  0  0
   10.4544    3.3273   20.5213 C   0  0  0  0  0  0
   11.1477    2.7254   22.7459 C   0  0  0  0  0  0
    5.1289   -1.9652   27.3242 F   0  0  0  0  0  0
   11.3128    4.3760   20.7012 N   0  0  0  0  0  0
   11.9524    3.8244   22.8286 N   0  0  0  0  0  0
    8.7728   -0.8033   20.4942 N   0  0  0  0  0  0
    7.4478   -2.0516   17.2852 N   0  0  0  0  0  0
    9.7668    3.2426   19.5054 O   0  0  0  0  0  0
   12.8587    5.6455   21.8062 O   0  0  0  0  0  0
    7.5528   -2.4132   21.5720 O   0  0  0  0  0  0
    6.5533   -3.8786   26.0932 O   0  0  0  0  0  0
    4.9551    0.8975   26.6394 Cl  0  0  0  0  0  0
    4.3463   -6.1213   25.6003 Cl  0  0  0  0  0  0
    9.9523    0.6111   19.6016 H   0  0  0  0  0  0
    8.2892   -3.4640   16.0210 H   0  0  0  0  0  0
   10.3557   -3.7881   17.3825 H   0  0  0  0  0  0
   10.6111   -2.4969   19.4984 H   0  0  0  0  0  0
    8.0150   -2.9497   23.9866 H   0  0  0  0  0  0
    6.8113   -5.0802   24.4181 H   0  0  0  0  0  0
    8.2825   -4.7367   25.3265 H   0  0  0  0  0  0
    4.5956   -8.3827   27.2754 H   0  0  0  0  0  0
    6.5298   -9.3877   28.4257 H   0  0  0  0  0  0
    9.0892   -6.3748   26.7899 H   0  0  0  0  0  0
    6.7801   -0.6980   18.7133 H   0  0  0  0  0  0
    6.6435    1.0911   24.3808 H   0  0  0  0  0  0
    8.7801   -8.3880   28.1695 H   0  0  0  0  0  0
    8.9356    1.2813   23.7179 H   0  0  0  0  0  0
   11.2009    2.1379   23.6520 H   0  0  0  0  0  0
   11.3616    5.0349   19.9379 H   0  0  0  0  0  0
   12.5037    4.0176   23.6533 H   0  0  0  0  0  0
  1 29  1  0  0  0
  1 30  1  0  0  0
  1 34  2  0  0  0
  2 24  2  0  0  0
  2 31  1  0  0  0
  2 39  1  0  0  0
  3  6  1  0  0  0
  3 16  2  0  0  0
  3 31  1  0  0  0
  4  5  1  0  0  0
  4 32  2  0  0  0
  4 40  1  0  0  0
  5  6  2  0  0  0
  5 41  1  0  0  0
  6 42  1  0  0  0
  7  8  1  0  0  0
  7 21  2  0  0  0
  7 43  1  0  0  0
  8 14  2  0  0  0
  8 36  1  0  0  0
  9 19  1  0  0  0
  9 36  1  0  0  0
  9 44  1  0  0  0
  9 45  1  0  0  0
 10 11  1  0  0  0
 10 19  2  0  0  0
 10 38  1  0  0  0
 11 12  2  0  0  0
 11 46  1  0  0  0
 12 20  1  0  0  0
 12 47  1  0  0  0
 13 19  1  0  0  0
 13 20  2  0  0  0
 13 48  1  0  0  0
 14 15  1  0  0  0
 14 28  1  0  0  0
 15 18  2  0  0  0
 15 37  1  0  0  0
 16 32  1  0  0  0
 16 49  1  0  0  0
 17 22  1  0  0  0
 17 31  1  0  0  0
 17 35  2  0  0  0
 18 21  1  0  0  0
 18 50  1  0  0  0
 20 51  1  0  0  0
 21 22  1  0  0  0
 22 23  2  0  0  0
 23 24  1  0  0  0
 23 52  1  0  0  0
 24 25  1  0  0  0
 25 26  1  0  0  0
 25 27  2  0  0  0
 26 29  1  0  0  0
 26 33  2  0  0  0
 27 30  1  0  0  0
 27 53  1  0  0  0
 29 54  1  0  0  0
 30 55  1  0  0  0
M  END
> <s_m_entry_id>
1548

> <s_m_entry_name>
7m8p.1_ligand

> <s_m_Source_Path>
/home/iakrani/Data_2/Ifigeneia/Mpro_water_data/Perampanel_analogue_structures

> <s_m_Source_File>
7m8p_minimized.mae

> <i_m_Source_File_Index>
1

> <s_pdb_PDB_TITLE>
CRYSTAL STRUCTURE OF THE SARS-COV-2(2019-NCOV) MAIN PROTEASE IN COMPLEX WITH COMPOUND 23

> <s_pdb_PDB_ID>
7M8P

> <r_pdb_PDB_CRYST1_a>
68.181

> <r_pdb_PDB_CRYST1_b>
100.606

> <r_pdb_PDB_CRYST1_c>
104.355

> <r_pdb_PDB_CRYST1_alpha>
90

> <r_pdb_PDB_CRYST1_beta>
90

> <r_pdb_PDB_CRYST1_gamma>
90

> <s_pdb_PDB_CRYST1_Space_Group>
P 21 21 21

> <i_pdb_PDB_CRYST1_z>
8

> <s_pdb_PDB_CLASSIFICATION>
VIRAL PROTEIN, HYDROLASE

> <s_pdb_PDB_DEPOSITION_DATE>
30-MAR-21

> <s_pdb_PDB_format_version>
3.30

> <r_pdb_PDB_R>
0.185000002384186

> <r_pdb_PDB_Rfree>
0.231000006198883

> <r_pdb_PDB_RESOLUTION>
2.23

> <s_pdb_PDB_EXPDTA>
X-RAY DIFFRACTION

> <r_pdb_PDB_EXPDTA_TEMPERATURE>
100

> <s_pdb_PDB_REMARK_350_Biomolecule_1_Chains>
A, B

> <s_pdb_PDB_REMARK_350_Biomolecule_1_Transformation_1>
1.000000 0.000000 0.000000   0.000000;0.000000 1.000000 0.000000   0.000000;0.000000 0.000000 1.000000   0.000000

> <s_ppw_entry_id_backup>
105

> <b_ppw_prepared>
1

> <s_ppw_prepared_with_version>
2018-1

> <b_ppw_assigned_bond_orders>
1

> <b_ppw_added_hydrogens>
1

> <b_ppw_treated_metals>
1

> <b_ppw_created_disulfur>
1

> <b_ppw_deleted_far_waters>
1

> <b_ppw_ran_protassign>
1

> <b_ppw_removed_non_hbond_waters>
1

> <r_i_Potential_Energy-OPLS3>
-2974.64135241663

> <r_i_RMS_Derivative-OPLS3>
0.0959885843904432

> <r_i_Max_Derivative-OPLS3>
3.04397617471873

> <r_i_Stretch_Energy-OPLS3>
269.979752874836

> <r_i_Bend_Energy-OPLS3>
1148.05932730965

> <r_i_LJ-14_Energy-OPLS3>
2752.73568065001

> <r_i_El-14_Energy-OPLS3>
1114.02363372919

> <r_i_Van_der_Waals_Energy-OPLS3>
-5804.48335705331

> <r_i_Electrostatic_Energy-OPLS3>
-3360.66008153699

> <r_i_Dihedral_Energy-OPLS3>
838.420080438678

> <r_i_target_temperature>
298

> <b_ppw_ran_impref>
1

> <s_m_subgroup_title>
Crystallographic_analogues

> <s_m_subgroupid>
Crystallographic_analogues

> <b_m_subgroup_collapsed>
0

$$$$
