Compound_16-7M8N
                    3D
 Structure written by MMmdl.
 58 62  0  0  1  0            999 V2000
    9.5674    0.5656   20.3341 C   0  0  0  0  0  0
   10.1183   -2.0732   18.7338 C   0  0  0  0  0  0
    8.3064   -1.1804   21.4131 C   0  0  0  0  0  0
    8.9571   -1.3829   19.1030 C   0  0  0  0  0  0
    8.9439   -2.8997   16.8128 C   0  0  0  0  0  0
   10.1105   -2.8524   17.5761 C   0  0  0  0  0  0
   10.4379    3.5480   20.2795 C   0  0  0  0  0  0
   11.1611    2.9799   22.5041 C   0  0  0  0  0  0
    7.8518   -2.1132   24.3454 C   0  0  0  0  0  0
    7.2534   -2.5454   25.5380 C   0  0  0  0  0  0
    5.2342   -6.2694   25.5883 C   0  0  0  0  0  0
    6.5193   -8.1108   26.7087 C   0  0  0  0  0  0
    7.6920   -8.6886   27.1882 C   0  0  0  0  0  0
    6.5467   -6.8731   26.0590 C   0  0  0  0  0  0
    8.9101   -8.0441   26.9976 C   0  0  0  0  0  0
    8.9512   -6.8175   26.3380 C   0  0  0  0  0  0
    6.5332   -1.6195   26.2899 C   0  0  0  0  0  0
    6.3705   -0.3089   25.8494 C   0  0  0  0  0  0
    6.9518    0.0974   24.6519 C   0  0  0  0  0  0
   12.0722    4.9385   21.5116 C   0  0  0  0  0  0
    9.0216    0.8537   22.6168 C   0  0  0  0  0  0
    8.3750   -0.3433   22.6305 C   0  0  0  0  0  0
    7.7065   -0.7971   23.8817 C   0  0  0  0  0  0
    7.8726   -4.8570   25.1839 C   0  0  0  0  0  0
    7.7759   -6.2124   25.8771 C   0  0  0  0  0  0
    7.8316   -1.4768   18.2769 C   0  0  0  0  0  0
    9.6790    1.3638   21.4187 C   0  0  0  0  0  0
   10.4441    2.6130   21.4140 C   0  0  0  0  0  0
    8.9144   -0.6443   20.2979 N   0  0  0  0  0  0
    7.8194   -2.2184   17.1409 N   0  0  0  0  0  0
   11.2809    4.6112   20.4426 N   0  0  0  0  0  0
   11.9456    4.0928   22.5711 N   0  0  0  0  0  0
    7.7485   -2.2824   21.3965 O   0  0  0  0  0  0
    9.7388    3.4405   19.2721 O   0  0  0  0  0  0
   12.8270    5.9053   21.5188 O   0  0  0  0  0  0
    7.3251   -3.8387   26.0218 O   0  0  0  0  0  0
    5.4453    0.8073   26.7821 Cl  0  0  0  0  0  0
   10.0246    0.8144   19.3857 H   0  0  0  0  0  0
   11.0068   -2.0262   19.3478 H   0  0  0  0  0  0
    8.8978   -3.4965   15.9159 H   0  0  0  0  0  0
   10.9859   -3.4091   17.2782 H   0  0  0  0  0  0
   11.2361    2.4006   23.4142 H   0  0  0  0  0  0
    8.4474   -2.8002   23.7655 H   0  0  0  0  0  0
    5.3091   -5.8774   24.5739 H   0  0  0  0  0  0
    4.4274   -7.0018   25.5916 H   0  0  0  0  0  0
    4.9528   -5.4611   26.2614 H   0  0  0  0  0  0
    5.5833   -8.6295   26.8541 H   0  0  0  0  0  0
    7.6567   -9.6404   27.6969 H   0  0  0  0  0  0
    9.8222   -8.4952   27.3590 H   0  0  0  0  0  0
    9.9055   -6.3318   26.1978 H   0  0  0  0  0  0
    6.0687   -1.9279   27.2096 H   0  0  0  0  0  0
    6.8140    1.1170   24.3240 H   0  0  0  0  0  0
    9.0488    1.4540   23.5161 H   0  0  0  0  0  0
    7.3484   -4.8996   24.2281 H   0  0  0  0  0  0
    8.9174   -4.6329   24.9636 H   0  0  0  0  0  0
    6.9127   -0.9670   18.5276 H   0  0  0  0  0  0
   11.3132    5.2638   19.6726 H   0  0  0  0  0  0
   12.4991    4.3031   23.3898 H   0  0  0  0  0  0
  1 27  2  0  0  0
  1 29  1  0  0  0
  1 38  1  0  0  0
  2  4  1  0  0  0
  2  6  2  0  0  0
  2 39  1  0  0  0
  3 22  1  0  0  0
  3 29  1  0  0  0
  3 33  2  0  0  0
  4 26  2  0  0  0
  4 29  1  0  0  0
  5  6  1  0  0  0
  5 30  2  0  0  0
  5 40  1  0  0  0
  6 41  1  0  0  0
  7 28  1  0  0  0
  7 31  1  0  0  0
  7 34  2  0  0  0
  8 28  2  0  0  0
  8 32  1  0  0  0
  8 42  1  0  0  0
  9 10  1  0  0  0
  9 23  2  0  0  0
  9 43  1  0  0  0
 10 17  2  0  0  0
 10 36  1  0  0  0
 11 14  1  0  0  0
 11 44  1  0  0  0
 11 45  1  0  0  0
 11 46  1  0  0  0
 12 13  1  0  0  0
 12 14  2  0  0  0
 12 47  1  0  0  0
 13 15  2  0  0  0
 13 48  1  0  0  0
 14 25  1  0  0  0
 15 16  1  0  0  0
 15 49  1  0  0  0
 16 25  2  0  0  0
 16 50  1  0  0  0
 17 18  1  0  0  0
 17 51  1  0  0  0
 18 19  2  0  0  0
 18 37  1  0  0  0
 19 23  1  0  0  0
 19 52  1  0  0  0
 20 31  1  0  0  0
 20 32  1  0  0  0
 20 35  2  0  0  0
 21 22  2  0  0  0
 21 27  1  0  0  0
 21 53  1  0  0  0
 22 23  1  0  0  0
 24 25  1  0  0  0
 24 36  1  0  0  0
 24 54  1  0  0  0
 24 55  1  0  0  0
 26 30  1  0  0  0
 26 56  1  0  0  0
 27 28  1  0  0  0
 31 57  1  0  0  0
 32 58  1  0  0  0
M  END
> <s_m_entry_id>
1543

> <s_m_entry_name>
7m8n.1_ligand

> <s_m_Source_Path>
/home/iakrani/Data_2/Ifigeneia/Mpro_water_data/Perampanel_analogue_structures

> <s_m_Source_File>
7m8n_minimized.mae

> <i_m_Source_File_Index>
1

> <s_pdb_PDB_TITLE>
CRYSTAL STRUCTURE OF THE SARS-COV-2(2019-NCOV) MAIN PROTEASE IN COMPLEX WITH COMPOUND 16

> <s_pdb_PDB_ID>
7M8N

> <r_pdb_PDB_CRYST1_a>
67.306

> <r_pdb_PDB_CRYST1_b>
100.947

> <r_pdb_PDB_CRYST1_c>
104.137

> <r_pdb_PDB_CRYST1_alpha>
90

> <r_pdb_PDB_CRYST1_beta>
90

> <r_pdb_PDB_CRYST1_gamma>
90

> <s_pdb_PDB_CRYST1_Space_Group>
P 21 21 21

> <i_pdb_PDB_CRYST1_z>
8

> <s_pdb_PDB_CLASSIFICATION>
VIRAL PROTEIN, HYDROLASE

> <s_pdb_PDB_DEPOSITION_DATE>
30-MAR-21

> <s_pdb_PDB_format_version>
3.30

> <r_pdb_PDB_R>
0.196999996900558

> <r_pdb_PDB_Rfree>
0.229000002145767

> <r_pdb_PDB_RESOLUTION>
1.96

> <s_pdb_PDB_EXPDTA>
X-RAY DIFFRACTION

> <r_pdb_PDB_EXPDTA_TEMPERATURE>
100

> <s_pdb_PDB_REMARK_350_Biomolecule_1_Chains>
A, B

> <s_pdb_PDB_REMARK_350_Biomolecule_1_Transformation_1>
1.000000 0.000000 0.000000   0.000000;0.000000 1.000000 0.000000   0.000000;0.000000 0.000000 1.000000   0.000000

> <s_ppw_entry_id_backup>
80

> <b_ppw_prepared>
1

> <s_ppw_prepared_with_version>
2018-1

> <b_ppw_assigned_bond_orders>
1

> <b_ppw_added_hydrogens>
1

> <b_ppw_treated_metals>
1

> <b_ppw_created_disulfur>
1

> <b_ppw_deleted_far_waters>
1

> <b_ppw_ran_protassign>
1

> <b_ppw_removed_non_hbond_waters>
1

> <r_i_Potential_Energy-OPLS3>
-2962.32073909075

> <r_i_RMS_Derivative-OPLS3>
0.0989313186672675

> <r_i_Max_Derivative-OPLS3>
2.96474925726387

> <r_i_Stretch_Energy-OPLS3>
278.057056159655

> <r_i_Bend_Energy-OPLS3>
1170.34290539672

> <r_i_LJ-14_Energy-OPLS3>
2826.93628740074

> <r_i_El-14_Energy-OPLS3>
1094.74745312936

> <r_i_Van_der_Waals_Energy-OPLS3>
-5887.64792045661

> <r_i_Electrostatic_Energy-OPLS3>
-3369.62098520826

> <r_i_Dihedral_Energy-OPLS3>
863.286054773483

> <r_i_target_temperature>
298

> <b_ppw_ran_impref>
1

> <s_m_subgroup_title>
Crystallographic_analogues

> <s_m_subgroupid>
Crystallographic_analogues

> <b_m_subgroup_collapsed>
0

$$$$
