7GAV_ligand
                    3D
 Schrodinger Suite 2021-2.
 36 39  0  0  1  0            999 V2000
    7.2298   -2.0656   17.5786 N   0  0  0  0  0  0
    9.8414   -1.6587   23.9964 C   0  0  0  0  0  0
    8.7122   -0.9021   23.2969 C   0  0  1  0  0  0
    8.2610   -1.6689   22.0500 C   0  0  0  0  0  0
    8.5624   -1.6841   19.5775 C   0  0  0  0  0  0
    7.4242   -1.5105   18.7843 C   0  0  0  0  0  0
    9.4112   -3.1084   17.7765 C   0  0  0  0  0  0
   11.8027   -3.5333   19.1657 C   0  0  0  0  0  0
    9.6087   -2.5047   19.0521 C   0  0  0  0  0  0
    6.4384   -0.2309   24.4611 C   0  0  0  0  0  0
    7.5949   -2.7035   22.1214 O   0  0  0  0  0  0
    9.2035   -2.4097   25.0735 O   0  0  0  0  0  0
    7.6424   -0.9131   24.3660 C   0  0  0  0  0  0
    7.9558   -1.8724   25.3117 C   0  0  0  0  0  0
    7.0843   -2.2067   26.3416 C   0  0  0  0  0  0
    5.8597   -1.5568   26.4057 C   0  0  0  0  0  0
    5.5602   -0.5719   25.4717 C   0  0  0  0  0  0
    4.0330    0.2567   25.5682 Cl  0  0  0  0  0  0
    8.7116   -1.1544   20.8796 N   0  0  0  0  0  0
   10.8329   -2.7505   19.7292 C   0  0  0  0  0  0
   11.6035   -4.1229   17.9229 C   0  0  0  0  0  0
   10.4325   -3.9335   17.2393 C   0  0  0  0  0  0
    8.1951   -2.8416   17.0996 C   0  0  0  0  0  0
   10.5464   -0.9443   24.4217 H   0  0  0  0  0  0
   10.3011   -2.3536   23.2936 H   0  0  0  0  0  0
    9.0126    0.1158   23.0482 H   0  0  0  0  0  0
    6.6662   -0.8718   19.2133 H   0  0  0  0  0  0
   12.7342   -3.6982   19.6870 H   0  0  0  0  0  0
    6.2027    0.5499   23.7530 H   0  0  0  0  0  0
    7.3671   -2.9557   27.0666 H   0  0  0  0  0  0
    5.1494   -1.8178   27.1764 H   0  0  0  0  0  0
    9.2255   -0.2848   20.8748 H   0  0  0  0  0  0
   10.9926   -2.3096   20.7022 H   0  0  0  0  0  0
   12.3770   -4.7379   17.4868 H   0  0  0  0  0  0
   10.2892   -4.4176   16.2846 H   0  0  0  0  0  0
    8.0790   -3.3154   16.1360 H   0  0  0  0  0  0
  1  6  1  0  0  0
  1 23  2  0  0  0
  2  3  1  0  0  0
  2 12  1  0  0  0
  2 24  1  0  0  0
  2 25  1  0  0  0
  3  4  1  0  0  0
  3 13  1  0  0  0
  3 26  1  0  0  0
  4 11  2  0  0  0
  4 19  1  0  0  0
  5  6  2  0  0  0
  5  9  1  0  0  0
  5 19  1  0  0  0
  6 27  1  0  0  0
  7  9  1  0  0  0
  7 22  2  0  0  0
  7 23  1  0  0  0
  8 20  1  0  0  0
  8 21  2  0  0  0
  8 28  1  0  0  0
  9 20  2  0  0  0
 10 13  1  0  0  0
 10 17  2  0  0  0
 10 29  1  0  0  0
 12 14  1  0  0  0
 13 14  2  0  0  0
 14 15  1  0  0  0
 15 16  2  0  0  0
 15 30  1  0  0  0
 16 17  1  0  0  0
 16 31  1  0  0  0
 17 18  1  0  0  0
 19 32  1  0  0  0
 20 33  1  0  0  0
 21 22  1  0  0  0
 21 34  1  0  0  0
 22 35  1  0  0  0
 23 36  1  0  0  0
M  END
> <s_m_entry_id>
201

> <s_m_entry_name>
7gav.pdb.1_A_ligand

> <s_pdb_PDB_TITLE>
GROUP DEPOSITION SARS-COV-2 MAIN PROTEASE IN COMPLEX WITH INHIBITORS FROM THE COVID MOONSHOT -- CRYSTAL STRUCTURE OF SARS-COV-2 MAIN PROTEASE IN COMPLEX WITH MAT-POS-F7918075-2 (SARS2_MPROA-X0854)

> <s_pdb_PDB_ID>
7GAV

> <s_m_Source_File>
7gav.pdb.gz

> <s_user_Compound_ID>
MAT-POS-f7918075-2

> <s_user_Monomer-Dimer>
Dimer

> <s_user_xcode>
SARS2_MproA-x0854

$$$$
