7GAW_ligand
                    3D
 Schrodinger Suite 2021-2.
 54 58  0  0  1  0            999 V2000
    8.6934   -1.1581   21.1180 N   0  0  0  0  0  0
    8.8496   -8.1268   23.1216 N   0  0  0  0  0  0
    8.7977   -3.1250   25.5974 C   0  0  0  0  0  0
    9.8392   -1.5600   23.9955 C   0  0  0  0  0  0
    8.4931   -0.9821   23.5450 C   0  0  1  0  0  0
    8.0988   -1.6633   22.2307 C   0  0  0  0  0  0
    8.5350   -1.5945   19.7784 C   0  0  0  0  0  0
    8.0562   -2.6994   17.2918 C   0  0  0  0  0  0
   11.5036   -3.9842   17.9163 C   0  0  0  0  0  0
   10.8490   -2.5882   19.7525 C   0  0  0  0  0  0
    7.4213   -1.2224   24.6003 C   0  0  0  0  0  0
   10.0569   -6.1953   21.8591 C   0  0  0  0  0  0
   11.4647   -6.4782   21.3869 C   0  0  0  0  0  0
   10.3602   -6.4581   20.4011 C   0  0  0  0  0  0
    9.3977   -7.2858   22.5861 C   0  0  0  0  0  0
    9.6982   -4.7968   22.3585 C   0  0  0  0  0  0
   10.4723   -4.2224   23.8591 S   0  0  0  0  0  0
   11.7719   -3.7187   23.5434 O   0  0  0  0  0  0
   10.3444   -5.2563   24.8377 O   0  0  0  0  0  0
    9.5864   -2.9624   24.3717 N   0  0  1  0  0  0
    7.5360   -2.3082   25.4874 C   0  0  0  0  0  0
    6.4769   -2.6090   26.3394 C   0  0  0  0  0  0
    5.3304   -1.8394   26.3522 C   0  0  0  0  0  0
    6.2750   -0.4237   24.6473 C   0  0  0  0  0  0
    5.2511   -0.7506   25.5211 C   0  0  0  0  0  0
    3.8147    0.2312   25.5539 Cl  0  0  0  0  0  0
    7.3367   -2.6264   22.1969 O   0  0  0  0  0  0
    9.5742   -2.3691   19.1656 C   0  0  0  0  0  0
   11.7825   -3.3767   19.1353 C   0  0  0  0  0  0
   10.3009   -3.7834   17.2981 C   0  0  0  0  0  0
    9.3112   -2.9621   17.8958 C   0  0  0  0  0  0
    7.1038   -1.9532   17.8432 N   0  0  0  0  0  0
    7.3519   -1.4264   19.0531 C   0  0  0  0  0  0
    9.3325   -0.3798   21.1962 H   0  0  0  0  0  0
    9.3799   -2.7805   26.4522 H   0  0  0  0  0  0
    8.5397   -4.1763   25.7263 H   0  0  0  0  0  0
   10.1966   -1.0099   24.8662 H   0  0  0  0  0  0
   10.5431   -1.5293   23.1638 H   0  0  0  0  0  0
    8.5993    0.0899   23.3773 H   0  0  0  0  0  0
    7.8255   -3.1161   16.3223 H   0  0  0  0  0  0
   12.2402   -4.6214   17.4495 H   0  0  0  0  0  0
   11.0937   -2.1297   20.6994 H   0  0  0  0  0  0
   11.5060   -7.5495   21.5848 H   0  0  0  0  0  0
   11.8223   -5.4547   21.2731 H   0  0  0  0  0  0
   10.4537   -5.4297   20.0518 H   0  0  0  0  0  0
   10.1373   -7.5246   20.3635 H   0  0  0  0  0  0
    8.6158   -4.7216   22.4633 H   0  0  0  0  0  0
    9.8824   -4.0750   21.5626 H   0  0  0  0  0  0
    6.5437   -3.4566   27.0054 H   0  0  0  0  0  0
    4.5136   -2.0982   27.0097 H   0  0  0  0  0  0
    6.1924    0.4410   24.0054 H   0  0  0  0  0  0
   12.7438   -3.5246   19.6050 H   0  0  0  0  0  0
   10.0980   -4.2520   16.3463 H   0  0  0  0  0  0
    6.5475   -0.8329   19.4621 H   0  0  0  0  0  0
  1  6  1  0  0  0
  1  7  1  0  0  0
  1 34  1  0  0  0
  2 15  3  0  0  0
  3 20  1  0  0  0
  3 21  1  0  0  0
  3 35  1  0  0  0
  3 36  1  0  0  0
  4  5  1  0  0  0
  4 20  1  0  0  0
  4 37  1  0  0  0
  4 38  1  0  0  0
  5  6  1  0  0  0
  5 11  1  0  0  0
  5 39  1  0  0  0
  6 27  2  0  0  0
  7 28  1  0  0  0
  7 33  2  0  0  0
  8 31  1  0  0  0
  8 32  2  0  0  0
  8 40  1  0  0  0
  9 29  1  0  0  0
  9 30  2  0  0  0
  9 41  1  0  0  0
 10 28  1  0  0  0
 10 29  2  0  0  0
 10 42  1  0  0  0
 11 21  1  0  0  0
 11 24  2  0  0  0
 12 13  1  0  0  0
 12 14  1  0  0  0
 12 15  1  0  0  0
 12 16  1  0  0  0
 13 14  1  0  0  0
 13 43  1  0  0  0
 13 44  1  0  0  0
 14 45  1  0  0  0
 14 46  1  0  0  0
 16 17  1  0  0  0
 16 47  1  0  0  0
 16 48  1  0  0  0
 17 18  2  0  0  0
 17 19  2  0  0  0
 17 20  1  0  0  0
 21 22  2  0  0  0
 22 23  1  0  0  0
 22 49  1  0  0  0
 23 25  2  0  0  0
 23 50  1  0  0  0
 24 25  1  0  0  0
 24 51  1  0  0  0
 25 26  1  0  0  0
 28 31  2  0  0  0
 29 52  1  0  0  0
 30 31  1  0  0  0
 30 53  1  0  0  0
 32 33  1  0  0  0
 33 54  1  0  0  0
M  END
> <s_m_entry_id>
203

> <s_m_entry_name>
7gaw.pdb.1_A_ligand

> <s_pdb_PDB_TITLE>
GROUP DEPOSITION SARS-COV-2 MAIN PROTEASE IN COMPLEX WITH INHIBITORS FROM THE COVID MOONSHOT -- CRYSTAL STRUCTURE OF SARS-COV-2 MAIN PROTEASE IN COMPLEX WITH MAT-POS-E194DF51-1 (SARS2_MPROA-X0862)

> <s_pdb_PDB_ID>
7GAW

> <s_m_Source_File>
7gaw.pdb.gz

> <s_user_Compound_ID>
MAT-POS-e194df51-1

> <s_user_Monomer-Dimer>
Dimer

> <s_user_xcode>
SARS2_MproA-x0862

$$$$
