7GAX_ligand
                    3D
 Schrodinger Suite 2021-2.
 39 41  0  0  1  0            999 V2000
    8.4890   -1.2012   21.0221 N   0  0  0  0  0  0
   10.0654    3.6395   25.4664 N   0  3  0  0  0  0
    7.0596   -1.6384   19.0617 C   0  0  0  0  0  0
    8.3170   -1.5383   19.6609 C   0  0  0  0  0  0
    7.6330   -1.3673   22.0485 C   0  0  0  0  0  0
    7.7164   -0.3215   23.1449 C   0  0  0  0  0  0
    9.3904    1.2611   24.0944 C   0  0  0  0  0  0
    8.8171    3.2340   25.3169 C   0  0  0  0  0  0
   13.3974    2.5329   24.4980 C   0  0  0  0  0  0
   11.8388    0.9225   23.6663 C   0  0  0  0  0  0
    6.8859   -2.3350   22.1565 O   0  0  0  0  0  0
    6.8462   -2.1681   17.8519 N   0  0  0  0  0  0
    7.9113   -2.6306   17.1949 C   0  0  0  0  0  0
    9.1954   -2.5850   17.6973 C   0  0  0  0  0  0
    9.4264   -2.0279   18.9510 C   0  0  0  0  0  0
   10.8123   -2.0263   19.5415 C   0  0  0  0  0  0
    9.0715    0.1046   23.4368 N   0  0  0  0  0  0
   10.7593    1.6519   24.2246 C   0  0  0  0  0  0
   13.1211    1.3624   23.8042 C   0  0  0  0  0  0
   12.3900    3.2675   25.0567 C   0  0  0  0  0  0
   11.0462    2.8494   24.9275 C   0  0  0  0  0  0
    8.4332    2.0782   24.6576 C   0  0  0  0  0  0
    9.3503   -0.7739   21.3316 H   0  0  0  0  0  0
   10.2618    4.4982   25.9605 H   0  0  0  0  0  0
    6.1842   -1.2754   19.5796 H   0  0  0  0  0  0
    7.2564   -0.7117   24.0527 H   0  0  0  0  0  0
    7.1172    0.5449   22.8646 H   0  0  0  0  0  0
    8.0066    3.8198   25.7249 H   0  0  0  0  0  0
   14.4177    2.8717   24.6007 H   0  0  0  0  0  0
   11.6495    0.0075   23.1247 H   0  0  0  0  0  0
    7.7929   -3.0696   16.2153 H   0  0  0  0  0  0
   10.0163   -2.9809   17.1178 H   0  0  0  0  0  0
   11.5145   -2.4482   18.8225 H   0  0  0  0  0  0
   11.1058   -1.0036   19.7781 H   0  0  0  0  0  0
   10.8207   -2.6260   20.4516 H   0  0  0  0  0  0
    9.8039   -0.5150   23.1208 H   0  0  0  0  0  0
   13.9265    0.7907   23.3672 H   0  0  0  0  0  0
   12.6189    4.1723   25.6001 H   0  0  0  0  0  0
    7.3881    1.8161   24.5837 H   0  0  0  0  0  0
  1  4  1  0  0  0
  1  5  1  0  0  0
  1 23  1  0  0  0
  2  8  1  0  0  0
  2 21  2  0  0  0
  2 24  1  0  0  0
  3  4  1  0  0  0
  3 12  2  0  0  0
  3 25  1  0  0  0
  4 15  2  0  0  0
  5  6  1  0  0  0
  5 11  2  0  0  0
  6 17  1  0  0  0
  6 26  1  0  0  0
  6 27  1  0  0  0
  7 17  1  0  0  0
  7 18  2  0  0  0
  7 22  1  0  0  0
  8 22  2  0  0  0
  8 28  1  0  0  0
  9 19  1  0  0  0
  9 20  2  0  0  0
  9 29  1  0  0  0
 10 18  1  0  0  0
 10 19  2  0  0  0
 10 30  1  0  0  0
 12 13  1  0  0  0
 13 14  2  0  0  0
 13 31  1  0  0  0
 14 15  1  0  0  0
 14 32  1  0  0  0
 15 16  1  0  0  0
 16 33  1  0  0  0
 16 34  1  0  0  0
 16 35  1  0  0  0
 17 36  1  0  0  0
 18 21  1  0  0  0
 19 37  1  0  0  0
 20 21  1  0  0  0
 20 38  1  0  0  0
 22 39  1  0  0  0
M  CHG  1   2   1
M  END
> <s_m_entry_id>
119

> <s_m_entry_name>
7gax.pdb.1_ligand

> <s_pdb_PDB_TITLE>
GROUP DEPOSITION SARS-COV-2 MAIN PROTEASE IN COMPLEX WITH INHIBITORS FROM THE COVID MOONSHOT -- CRYSTAL STRUCTURE OF SARS-COV-2 MAIN PROTEASE IN COMPLEX WITH GAB-REV-70CC3CA5-4 (MPRO-X10019)

> <s_pdb_PDB_ID>
7GAX

> <s_m_Source_File>
7gax.pdb.gz

> <s_user_Compound_ID>
GAB-REV-70cc3ca5-4

> <s_user_Monomer-Dimer>
Monomer

> <s_user_xcode>
Mpro-x10019

$$$$
