7GAY_ligand
                    3D
 Schrodinger Suite 2021-2.
 29 30  0  0  1  0            999 V2000
    6.9216   -1.9994   17.8274 N   0  0  0  0  0  0
    7.3157   -1.8291   24.9308 C   0  0  0  0  0  0
    6.4205   -2.1020   25.9521 C   0  0  0  0  0  0
    5.4010   -1.2260   26.2333 C   0  0  0  0  0  0
    5.2864   -0.0519   25.5198 C   0  0  0  0  0  0
    6.1767    0.2370   24.5003 C   0  0  0  0  0  0
    9.4547   -2.5266   18.8210 C   0  0  0  0  0  0
    7.3044   -1.5395   19.0214 C   0  0  0  0  0  0
    7.2289   -2.5118   22.0368 O   0  0  0  0  0  0
    7.9436   -1.5165   22.0179 C   0  0  0  0  0  0
    8.9218   -1.2885   20.9296 C   0  0  0  0  0  0
    8.5606   -1.7768   19.5722 C   0  0  0  0  0  0
    7.8053   -2.7253   17.1323 C   0  0  0  0  0  0
    9.0771   -3.0111   17.5856 C   0  0  0  0  0  0
   10.0911   -0.7106   21.1779 C   0  0  0  0  0  0
    7.9025   -0.5771   22.9747 N   0  0  0  0  0  0
    7.1739   -0.6703   24.1768 C   0  0  0  0  0  0
    8.1221   -2.5164   24.7215 H   0  0  0  0  0  0
    6.5225   -3.0074   26.5319 H   0  0  0  0  0  0
    4.6900   -1.4571   27.0127 H   0  0  0  0  0  0
    4.4986    0.6484   25.7552 H   0  0  0  0  0  0
    6.0939    1.1677   23.9586 H   0  0  0  0  0  0
   10.4439   -2.7299   19.2037 H   0  0  0  0  0  0
    6.6238   -0.9479   19.6157 H   0  0  0  0  0  0
    7.5365   -3.1207   16.1639 H   0  0  0  0  0  0
    9.7703   -3.5972   17.0005 H   0  0  0  0  0  0
   10.7954   -0.5502   20.3751 H   0  0  0  0  0  0
   10.3378   -0.4009   22.1827 H   0  0  0  0  0  0
    8.4225    0.2814   22.8621 H   0  0  0  0  0  0
  1  8  1  0  0  0
  1 13  2  0  0  0
  2  3  1  0  0  0
  2 17  2  0  0  0
  2 18  1  0  0  0
  3  4  2  0  0  0
  3 19  1  0  0  0
  4  5  1  0  0  0
  4 20  1  0  0  0
  5  6  2  0  0  0
  5 21  1  0  0  0
  6 17  1  0  0  0
  6 22  1  0  0  0
  7 12  1  0  0  0
  7 14  2  0  0  0
  7 23  1  0  0  0
  8 12  2  0  0  0
  8 24  1  0  0  0
  9 10  2  0  0  0
 10 11  1  0  0  0
 10 16  1  0  0  0
 11 12  1  0  0  0
 11 15  2  0  0  0
 13 14  1  0  0  0
 13 25  1  0  0  0
 14 26  1  0  0  0
 15 27  1  0  0  0
 15 28  1  0  0  0
 16 17  1  0  0  0
 16 29  1  0  0  0
M  END
> <s_m_entry_id>
121

> <s_m_entry_name>
7gay.pdb.1_ligand

> <s_pdb_PDB_TITLE>
GROUP DEPOSITION SARS-COV-2 MAIN PROTEASE IN COMPLEX WITH INHIBITORS FROM THE COVID MOONSHOT -- CRYSTAL STRUCTURE OF SARS-COV-2 MAIN PROTEASE IN COMPLEX WITH BEN-DND-031A96CC-8 (MPRO-X10022)

> <s_pdb_PDB_ID>
7GAY

> <s_m_Source_File>
7gay.pdb.gz

> <s_user_Compound_ID>
BEN-DND-031a96cc-8

> <s_user_Monomer-Dimer>
Monomer

> <s_user_xcode>
Mpro-x10022

$$$$
