7GAZ_ligand
                    3D
 Schrodinger Suite 2021-2.
 40 41  0  0  1  0            999 V2000
    8.2425   -1.3249   25.0765 N   0  0  0  0  0  0
    6.0616   -0.1584   24.9606 C   0  0  0  0  0  0
    5.4345   -1.2703   25.7754 C   0  0  0  0  0  0
    6.1524   -2.5776   25.5533 C   0  0  0  0  0  0
    5.4916   -3.8007   25.6429 C   0  0  0  0  0  0
    6.1654   -4.9922   25.4507 C   0  0  0  0  0  0
    8.2063   -3.7641   25.0632 C   0  0  0  0  0  0
    7.5939   -7.5243   25.5210 O   0  0  0  0  0  0
    8.4081   -6.4795   24.9760 S   0  0  0  0  0  0
    9.7183   -6.2741   25.5159 O   0  0  0  0  0  0
    8.5764   -6.7784   23.4103 N   0  0  0  0  0  0
    7.5206   -4.9648   25.1684 C   0  0  0  0  0  0
    7.5192   -2.5645   25.2487 C   0  0  0  0  0  0
    7.5470   -0.0472   25.2576 C   0  0  0  0  0  0
    9.4039   -1.2761   24.1832 C   0  0  0  0  0  0
   10.6606   -0.7726   24.8691 C   0  0  0  0  0  0
   11.7854   -0.8080   23.9237 N   0  0  3  0  0  0
   12.5011   -2.2177   23.5675 S   0  0  0  0  0  0
   12.1072   -3.1466   24.5795 O   0  0  0  0  0  0
   13.8942   -1.9476   23.3874 O   0  0  0  0  0  0
   11.8512   -2.7697   22.0365 C   0  0  0  0  0  0
    5.5722    0.7861   25.1983 H   0  0  0  0  0  0
    5.9178   -0.3608   23.8993 H   0  0  0  0  0  0
    4.3869   -1.3793   25.4948 H   0  0  0  0  0  0
    5.4726   -1.0106   26.8334 H   0  0  0  0  0  0
    4.4352   -3.8286   25.8659 H   0  0  0  0  0  0
    5.6347   -5.9302   25.5213 H   0  0  0  0  0  0
    9.2629   -3.7635   24.8393 H   0  0  0  0  0  0
    9.1215   -6.1544   22.8328 H   0  0  0  0  0  0
    8.1375   -7.5909   23.0013 H   0  0  0  0  0  0
    7.9920    0.7035   24.6046 H   0  0  0  0  0  0
    7.6870    0.2998   26.2813 H   0  0  0  0  0  0
    9.1772   -0.6379   23.3291 H   0  0  0  0  0  0
    9.5880   -2.2695   23.7741 H   0  0  0  0  0  0
   10.8860   -1.4079   25.7256 H   0  0  0  0  0  0
   10.5036    0.2513   25.2084 H   0  0  0  0  0  0
   12.1122    0.0466   23.4960 H   0  0  0  0  0  0
   12.3131   -3.7193   21.7663 H   0  0  0  0  0  0
   10.7731   -2.9031   22.1258 H   0  0  0  0  0  0
   12.0625   -2.0306   21.2638 H   0  0  0  0  0  0
  1 13  1  0  0  0
  1 14  1  0  0  0
  1 15  1  0  0  0
  2  3  1  0  0  0
  2 14  1  0  0  0
  2 22  1  0  0  0
  2 23  1  0  0  0
  3  4  1  0  0  0
  3 24  1  0  0  0
  3 25  1  0  0  0
  4  5  1  0  0  0
  4 13  2  0  0  0
  5  6  2  0  0  0
  5 26  1  0  0  0
  6 12  1  0  0  0
  6 27  1  0  0  0
  7 12  2  0  0  0
  7 13  1  0  0  0
  7 28  1  0  0  0
  8  9  2  0  0  0
  9 10  2  0  0  0
  9 11  1  0  0  0
  9 12  1  0  0  0
 11 29  1  0  0  0
 11 30  1  0  0  0
 14 31  1  0  0  0
 14 32  1  0  0  0
 15 16  1  0  0  0
 15 33  1  0  0  0
 15 34  1  0  0  0
 16 17  1  0  0  0
 16 35  1  0  0  0
 16 36  1  0  0  0
 17 18  1  0  0  0
 17 37  1  0  0  0
 18 19  2  0  0  0
 18 20  2  0  0  0
 18 21  1  0  0  0
 21 38  1  0  0  0
 21 39  1  0  0  0
 21 40  1  0  0  0
M  END
> <s_m_entry_id>
123

> <s_m_entry_name>
7gaz.pdb.1_ligand

> <s_pdb_PDB_TITLE>
GROUP DEPOSITION SARS-COV-2 MAIN PROTEASE IN COMPLEX WITH INHIBITORS FROM THE COVID MOONSHOT -- CRYSTAL STRUCTURE OF SARS-COV-2 MAIN PROTEASE IN COMPLEX WITH DUN-NEW-F8CE3686-14 (MPRO-X10049)

> <s_pdb_PDB_ID>
7GAZ

> <s_m_Source_File>
7gaz.pdb.gz

> <s_user_Compound_ID>
DUN-NEW-f8ce3686-14

> <s_user_Monomer-Dimer>
Monomer

> <s_user_xcode>
Mpro-x10049

$$$$
