7GB0_ligand
                    3D
 Schrodinger Suite 2021-2.
 49 50  0  0  1  0            999 V2000
    9.1546   -1.9760   22.7593 N   0  0  0  0  0  0
   13.2396    4.4951   25.2195 N   0  0  0  0  0  0
    7.9818   -1.8873   22.1156 C   0  0  0  0  0  0
    9.4227   -2.8036   23.9556 C   0  0  0  0  0  0
    9.1746   -4.2662   23.6035 C   0  0  0  0  0  0
    8.4927   -2.3587   25.0769 C   0  0  0  0  0  0
   10.8762   -2.5998   24.3622 C   0  0  0  0  0  0
    6.8569   -1.5227   18.8006 C   0  0  0  0  0  0
    9.1075   -2.1314   19.1629 C   0  0  0  0  0  0
    8.2799    1.2019   23.0816 C   0  0  0  0  0  0
    9.5212    3.0137   24.0857 C   0  0  0  0  0  0
   12.2823    3.9881   25.5816 C   0  0  0  0  0  0
   10.3424    3.0346   22.9652 C   0  0  0  0  0  0
   10.1646    2.1316   21.9305 C   0  0  0  0  0  0
    9.0205    0.1891   20.9725 N   0  0  0  0  0  0
    7.9454   -0.8368   20.9924 C   0  0  1  0  0  0
    7.9713   -1.4887   19.6233 C   0  0  0  0  0  0
    9.1006   -2.7517   17.9311 C   0  0  0  0  0  0
    7.9404   -2.7177   17.1927 C   0  0  0  0  0  0
    6.8211   -2.1270   17.6124 N   0  0  0  0  0  0
    7.0152   -2.6053   22.3412 O   0  0  0  0  0  0
    9.1397    1.1936   21.9883 C   0  0  0  0  0  0
    8.4809    2.0946   24.1184 C   0  0  0  0  0  0
    9.7997    3.9106   25.2721 C   0  0  0  0  0  0
   11.0277    3.3848   26.0399 C   0  0  0  0  0  0
    9.9513   -1.4483   22.4323 H   0  0  0  0  0  0
    9.3685   -4.8886   24.4771 H   0  0  0  0  0  0
    8.1387   -4.3942   23.2895 H   0  0  0  0  0  0
    9.8390   -4.5628   22.7920 H   0  0  0  0  0  0
    8.6801   -2.9613   25.9657 H   0  0  0  0  0  0
    8.6748   -1.3086   25.3056 H   0  0  0  0  0  0
    7.4568   -2.4873   24.7631 H   0  0  0  0  0  0
   11.0953   -3.2021   25.2439 H   0  0  0  0  0  0
   11.5290   -2.9038   23.5439 H   0  0  0  0  0  0
   11.0462   -1.5476   24.5902 H   0  0  0  0  0  0
    5.9421   -1.0392   19.1103 H   0  0  0  0  0  0
   10.0016   -2.1476   19.7684 H   0  0  0  0  0  0
    7.4519    0.5096   23.1227 H   0  0  0  0  0  0
   11.1357    3.7636   22.8906 H   0  0  0  0  0  0
   10.8231    2.1543   21.0748 H   0  0  0  0  0  0
    9.6811    0.1621   20.2090 H   0  0  0  0  0  0
    6.9968   -0.3068   21.0784 H   0  0  0  0  0  0
    9.9904   -3.2464   17.5706 H   0  0  0  0  0  0
    7.9055   -3.1852   16.2197 H   0  0  0  0  0  0
    7.8223    2.0853   24.9743 H   0  0  0  0  0  0
    8.9334    3.9171   25.9336 H   0  0  0  0  0  0
    9.9965    4.9241   24.9228 H   0  0  0  0  0  0
   10.8999    3.5796   27.1047 H   0  0  0  0  0  0
   11.0860    2.3017   25.9320 H   0  0  0  0  0  0
  1  3  1  0  0  0
  1  4  1  0  0  0
  1 26  1  0  0  0
  2 12  3  0  0  0
  3 16  1  0  0  0
  3 21  2  0  0  0
  4  5  1  0  0  0
  4  6  1  0  0  0
  4  7  1  0  0  0
  5 27  1  0  0  0
  5 28  1  0  0  0
  5 29  1  0  0  0
  6 30  1  0  0  0
  6 31  1  0  0  0
  6 32  1  0  0  0
  7 33  1  0  0  0
  7 34  1  0  0  0
  7 35  1  0  0  0
  8 17  1  0  0  0
  8 20  2  0  0  0
  8 36  1  0  0  0
  9 17  2  0  0  0
  9 18  1  0  0  0
  9 37  1  0  0  0
 10 22  1  0  0  0
 10 23  2  0  0  0
 10 38  1  0  0  0
 11 13  2  0  0  0
 11 23  1  0  0  0
 11 24  1  0  0  0
 12 25  1  0  0  0
 13 14  1  0  0  0
 13 39  1  0  0  0
 14 22  2  0  0  0
 14 40  1  0  0  0
 15 16  1  0  0  0
 15 22  1  0  0  0
 15 41  1  0  0  0
 16 17  1  0  0  0
 16 42  1  0  0  0
 18 19  2  0  0  0
 18 43  1  0  0  0
 19 20  1  0  0  0
 19 44  1  0  0  0
 23 45  1  0  0  0
 24 25  1  0  0  0
 24 46  1  0  0  0
 24 47  1  0  0  0
 25 48  1  0  0  0
 25 49  1  0  0  0
M  END
> <s_m_entry_id>
125

> <s_m_entry_name>
7gb0.pdb.1_ligand

> <s_pdb_PDB_TITLE>
GROUP DEPOSITION SARS-COV-2 MAIN PROTEASE IN COMPLEX WITH INHIBITORS FROM THE COVID MOONSHOT -- CRYSTAL STRUCTURE OF SARS-COV-2 MAIN PROTEASE IN COMPLEX WITH MAT-POS-C0143B99-1 (MPRO-X10082)

> <s_pdb_PDB_ID>
7GB0

> <s_m_Source_File>
7gb0.pdb.gz

> <s_user_Compound_ID>
MAT-POS-c0143b99-1

> <s_user_Monomer-Dimer>
Monomer

> <s_user_xcode>
Mpro-x10082

$$$$
