7GB4_ligand
                    3D
 Schrodinger Suite 2021-2.
 28 29  0  0  1  0            999 V2000
    8.1474   -0.8717   22.9036 N   0  0  0  0  0  0
    3.0285    0.7207   25.1110 N   0  0  0  0  0  0
    9.0916   -3.1910   17.5221 C   0  0  0  0  0  0
    7.8579   -2.9237   16.9586 C   0  0  0  0  0  0
    7.3102   -1.4844   18.6495 C   0  0  0  0  0  0
    7.3571   -1.0489   24.0582 C   0  0  0  0  0  0
    7.5662   -2.0158   25.0471 C   0  0  0  0  0  0
    5.2692   -0.5536   25.1331 C   0  0  0  0  0  0
    4.0141    0.1474   25.1422 C   0  0  0  0  0  0
    5.5575   -1.5602   26.0538 C   0  0  0  0  0  0
    6.6877   -2.2769   26.0298 N   0  0  0  0  0  0
    6.2006   -0.2893   24.1339 C   0  0  0  0  0  0
    8.0419   -1.5552   21.7501 C   0  0  0  0  0  0
    7.3569   -2.5668   21.6249 O   0  0  0  0  0  0
    8.8333   -0.9749   20.5940 C   0  0  0  0  0  0
    8.5206   -1.6796   19.2947 C   0  0  0  0  0  0
    6.9676   -2.0850   17.5048 N   0  0  0  0  0  0
    9.4213   -2.5529   18.7033 C   0  0  0  0  0  0
    8.8779   -0.1743   22.8938 H   0  0  0  0  0  0
    9.7672   -3.8820   17.0398 H   0  0  0  0  0  0
    7.5722   -3.4008   16.0328 H   0  0  0  0  0  0
    6.5764   -0.8128   19.0699 H   0  0  0  0  0  0
    8.4741   -2.6007   25.0470 H   0  0  0  0  0  0
    4.8511   -1.7946   26.8365 H   0  0  0  0  0  0
    6.0268    0.5021   23.4199 H   0  0  0  0  0  0
    9.8993   -1.0600   20.8054 H   0  0  0  0  0  0
    8.6055    0.0864   20.4950 H   0  0  0  0  0  0
   10.3803   -2.7343   19.1656 H   0  0  0  0  0  0
  1  6  1  0  0  0
  1 13  1  0  0  0
  1 19  1  0  0  0
  2  9  3  0  0  0
  3  4  1  0  0  0
  3 18  2  0  0  0
  3 20  1  0  0  0
  4 17  2  0  0  0
  4 21  1  0  0  0
  5 16  2  0  0  0
  5 17  1  0  0  0
  5 22  1  0  0  0
  6  7  1  0  0  0
  6 12  2  0  0  0
  7 11  2  0  0  0
  7 23  1  0  0  0
  8  9  1  0  0  0
  8 10  2  0  0  0
  8 12  1  0  0  0
 10 11  1  0  0  0
 10 24  1  0  0  0
 12 25  1  0  0  0
 13 14  2  0  0  0
 13 15  1  0  0  0
 15 16  1  0  0  0
 15 26  1  0  0  0
 15 27  1  0  0  0
 16 18  1  0  0  0
 18 28  1  0  0  0
M  END
> <s_m_entry_id>
127

> <s_m_entry_name>
7gb4.pdb.1_ligand

> <s_pdb_PDB_TITLE>
GROUP DEPOSITION SARS-COV-2 MAIN PROTEASE IN COMPLEX WITH INHIBITORS FROM THE COVID MOONSHOT -- CRYSTAL STRUCTURE OF SARS-COV-2 MAIN PROTEASE IN COMPLEX WITH DAR-DIA-23AA0B97-6 (MPRO-X10178)

> <s_pdb_PDB_ID>
7GB4

> <s_m_Source_File>
7gb4.pdb.gz

> <s_user_Compound_ID>
DAR-DIA-23aa0b97-6

> <s_user_Monomer-Dimer>
Monomer

> <s_user_xcode>
Mpro-x10178

$$$$
