7GB5_ligand
                    3D
 Schrodinger Suite 2021-2.
 28 29  0  0  1  0            999 V2000
    6.7679   -2.2547   17.6185 N   0  0  0  0  0  0
    7.5681   -0.7638   24.0893 C   0  0  0  0  0  0
    8.5013   -0.5672   22.9180 C   0  0  0  0  0  0
    8.0669   -1.3861   21.7186 C   0  0  0  0  0  0
    8.3344   -1.6022   19.3163 C   0  0  0  0  0  0
    9.3260   -2.3506   18.6971 C   0  0  0  0  0  0
    7.7414   -2.9721   17.0468 C   0  0  0  0  0  0
    7.3590   -2.3777   21.8281 O   0  0  0  0  0  0
    7.8788   -1.6437   25.1190 C   0  0  0  0  0  0
    6.9616   -1.9125   26.1216 C   0  0  0  0  0  0
    5.7200   -1.2967   26.1180 C   0  0  0  0  0  0
    6.3337   -0.1259   24.1034 C   0  0  0  0  0  0
    5.4312   -0.4029   25.1090 C   0  0  0  0  0  0
    3.9115    0.4387   25.1265 Cl  0  0  0  0  0  0
    8.5483   -0.9613   20.5467 N   0  0  0  0  0  0
    7.0712   -1.5853   18.7322 C   0  0  0  0  0  0
    9.0280   -3.0429   17.5394 C   0  0  0  0  0  0
    9.5120   -0.8553   23.2072 H   0  0  0  0  0  0
    8.5258    0.4883   22.6470 H   0  0  0  0  0  0
   10.3187   -2.3875   19.1208 H   0  0  0  0  0  0
    7.5395   -3.5375   16.1490 H   0  0  0  0  0  0
    8.8444   -2.1267   25.1436 H   0  0  0  0  0  0
    7.2125   -2.6049   26.9115 H   0  0  0  0  0  0
    5.0037   -1.5212   26.8945 H   0  0  0  0  0  0
    6.0838    0.5839   23.3287 H   0  0  0  0  0  0
    9.1102   -0.1230   20.5056 H   0  0  0  0  0  0
    6.3173   -0.9914   19.2275 H   0  0  0  0  0  0
    9.7938   -3.6209   17.0435 H   0  0  0  0  0  0
  1  7  1  0  0  0
  1 16  2  0  0  0
  2  3  1  0  0  0
  2  9  1  0  0  0
  2 12  2  0  0  0
  3  4  1  0  0  0
  3 18  1  0  0  0
  3 19  1  0  0  0
  4  8  2  0  0  0
  4 15  1  0  0  0
  5  6  2  0  0  0
  5 15  1  0  0  0
  5 16  1  0  0  0
  6 17  1  0  0  0
  6 20  1  0  0  0
  7 17  2  0  0  0
  7 21  1  0  0  0
  9 10  2  0  0  0
  9 22  1  0  0  0
 10 11  1  0  0  0
 10 23  1  0  0  0
 11 13  2  0  0  0
 11 24  1  0  0  0
 12 13  1  0  0  0
 12 25  1  0  0  0
 13 14  1  0  0  0
 15 26  1  0  0  0
 16 27  1  0  0  0
 17 28  1  0  0  0
M  END
> <s_m_entry_id>
129

> <s_m_entry_name>
7gb5.pdb.1_ligand

> <s_pdb_PDB_TITLE>
GROUP DEPOSITION SARS-COV-2 MAIN PROTEASE IN COMPLEX WITH INHIBITORS FROM THE COVID MOONSHOT -- CRYSTAL STRUCTURE OF SARS-COV-2 MAIN PROTEASE IN COMPLEX WITH EDG-MED-0DA5AD92-2 (MPRO-X10201)

> <s_pdb_PDB_ID>
7GB5

> <s_m_Source_File>
7gb5.pdb.gz

> <s_user_Compound_ID>
EDG-MED-0da5ad92-2

> <s_user_Monomer-Dimer>
Monomer

> <s_user_xcode>
Mpro-x10201

$$$$
