7GB6_ligand
                    3D
 Schrodinger Suite 2021-2.
 49 51  0  0  1  0            999 V2000
    8.6927   -1.0108   20.7373 N   0  0  0  0  0  0
    7.4912   -0.8784   24.2087 C   0  0  0  0  0  0
    6.2445   -0.2575   24.2611 C   0  0  0  0  0  0
    9.5604    0.0204   23.1905 C   0  0  0  0  0  0
    9.3354    1.4746   23.5786 C   0  0  0  0  0  0
   10.4095    2.0259   24.5343 C   0  0  0  0  0  0
   11.2013    4.0717   25.8363 C   0  0  0  0  0  0
   11.8225    1.9055   23.9489 C   0  0  0  0  0  0
    8.5317   -1.5998   19.4618 C   0  0  0  0  0  0
    9.2849   -2.9975   17.6706 C   0  0  0  0  0  0
    8.3039   -0.7366   23.0480 N   0  0  0  0  0  0
    7.0223   -2.1950   17.6809 N   0  0  0  0  0  0
   12.5994    3.9324   25.2431 C   0  0  0  0  0  0
    5.7094   -1.5240   26.2441 C   0  0  0  0  0  0
    8.0135   -2.9048   17.1246 C   0  0  0  0  0  0
    6.9714   -2.0959   26.2120 C   0  0  0  0  0  0
    9.5451   -2.3323   18.8557 C   0  0  0  0  0  0
   10.1352    3.4875   24.9035 C   0  0  0  0  0  0
   12.8928    2.4806   24.8804 C   0  0  0  0  0  0
    7.2911   -1.5514   18.8210 C   0  0  0  0  0  0
    8.0141   -1.4176   21.8401 C   0  0  0  0  0  0
    5.3735   -0.6030   25.2753 C   0  0  0  0  0  0
    7.2022   -2.3352   21.8340 O   0  0  0  0  0  0
    7.8675   -1.7726   25.2039 C   0  0  0  0  0  0
    3.7930    0.1314   25.3122 Cl  0  0  0  0  0  0
    9.3400   -0.2457   20.8621 H   0  0  0  0  0  0
    5.9759    0.4781   23.5173 H   0  0  0  0  0  0
   10.1902   -0.4608   23.9388 H   0  0  0  0  0  0
   10.1173   -0.0226   22.2544 H   0  0  0  0  0  0
    8.3532    1.5782   24.0397 H   0  0  0  0  0  0
    9.3027    2.0884   22.6784 H   0  0  0  0  0  0
   10.3757    1.4372   25.4511 H   0  0  0  0  0  0
   10.9873    5.1251   26.0170 H   0  0  0  0  0  0
   11.1624    3.5594   26.7976 H   0  0  0  0  0  0
   11.8623    2.4210   22.9894 H   0  0  0  0  0  0
   12.0430    0.8573   23.7472 H   0  0  0  0  0  0
   10.0458   -3.5792   17.1716 H   0  0  0  0  0  0
   13.3367    4.2821   25.9657 H   0  0  0  0  0  0
   12.6783    4.5526   24.3503 H   0  0  0  0  0  0
    5.0101   -1.8022   27.0186 H   0  0  0  0  0  0
    7.7820   -3.4208   16.2046 H   0  0  0  0  0  0
    7.2647   -2.8002   26.9763 H   0  0  0  0  0  0
   10.5239   -2.3783   19.3098 H   0  0  0  0  0  0
    9.1571    3.5637   25.3786 H   0  0  0  0  0  0
   10.0814    4.0867   23.9946 H   0  0  0  0  0  0
   13.8672    2.4177   24.3959 H   0  0  0  0  0  0
   12.9415    1.8822   25.7902 H   0  0  0  0  0  0
    6.4860   -0.9705   19.2462 H   0  0  0  0  0  0
    8.8538   -2.2123   25.1900 H   0  0  0  0  0  0
  1  9  1  0  0  0
  1 21  1  0  0  0
  1 26  1  0  0  0
  2  3  1  0  0  0
  2 11  1  0  0  0
  2 24  2  0  0  0
  3 22  2  0  0  0
  3 27  1  0  0  0
  4  5  1  0  0  0
  4 11  1  0  0  0
  4 28  1  0  0  0
  4 29  1  0  0  0
  5  6  1  0  0  0
  5 30  1  0  0  0
  5 31  1  0  0  0
  6  8  1  0  0  0
  6 18  1  0  0  0
  6 32  1  0  0  0
  7 13  1  0  0  0
  7 18  1  0  0  0
  7 33  1  0  0  0
  7 34  1  0  0  0
  8 19  1  0  0  0
  8 35  1  0  0  0
  8 36  1  0  0  0
  9 17  1  0  0  0
  9 20  2  0  0  0
 10 15  1  0  0  0
 10 17  2  0  0  0
 10 37  1  0  0  0
 11 21  1  0  0  0
 12 15  2  0  0  0
 12 20  1  0  0  0
 13 19  1  0  0  0
 13 38  1  0  0  0
 13 39  1  0  0  0
 14 16  2  0  0  0
 14 22  1  0  0  0
 14 40  1  0  0  0
 15 41  1  0  0  0
 16 24  1  0  0  0
 16 42  1  0  0  0
 17 43  1  0  0  0
 18 44  1  0  0  0
 18 45  1  0  0  0
 19 46  1  0  0  0
 19 47  1  0  0  0
 20 48  1  0  0  0
 21 23  2  0  0  0
 22 25  1  0  0  0
 24 49  1  0  0  0
M  END
> <s_m_entry_id>
131

> <s_m_entry_name>
7gb6.pdb.1_ligand

> <s_pdb_PDB_TITLE>
GROUP DEPOSITION SARS-COV-2 MAIN PROTEASE IN COMPLEX WITH INHIBITORS FROM THE COVID MOONSHOT -- CRYSTAL STRUCTURE OF SARS-COV-2 MAIN PROTEASE IN COMPLEX WITH JOR-UNI-2FC98D0B-12 (MPRO-X10236)

> <s_pdb_PDB_ID>
7GB6

> <s_m_Source_File>
7gb6.pdb.gz

> <s_user_Compound_ID>
JOR-UNI-2fc98d0b-12

> <s_user_Monomer-Dimer>
Monomer

> <s_user_xcode>
Mpro-x10236

$$$$
