7GB7_ligand
                    3D
 Schrodinger Suite 2021-2.
 46 48  0  0  1  0            999 V2000
   10.4031    1.9501   24.3721 N   0  0  0  0  0  0
    6.9133   -2.1400   17.6541 N   0  0  0  0  0  0
    7.4392   -0.9547   24.1687 C   0  0  0  0  0  0
    6.2138   -0.2983   24.2318 C   0  0  0  0  0  0
    9.4896    0.0052   23.1634 C   0  0  0  0  0  0
    9.2277    1.3893   23.6939 C   0  0  0  0  0  0
   10.0264    3.1083   25.2045 C   0  0  0  0  0  0
   12.6386    2.9286   24.1309 C   0  0  0  0  0  0
    8.4024   -1.5550   19.4498 C   0  0  0  0  0  0
    9.1689   -2.9630   17.6758 C   0  0  0  0  0  0
    7.1689   -1.5056   18.8006 C   0  0  0  0  0  0
    8.2562   -0.7773   23.0219 N   0  0  0  0  0  0
    8.5668   -0.9478   20.7094 N   0  0  0  0  0  0
   11.4551    2.3301   23.4049 C   0  0  0  0  0  0
    5.6313   -1.5884   26.1856 C   0  0  0  0  0  0
    7.1825   -2.3712   21.8192 O   0  0  0  0  0  0
    6.8577   -2.2348   26.1176 C   0  0  0  0  0  0
    7.9111   -2.8469   17.1064 C   0  0  0  0  0  0
   11.2458    3.6767   25.8832 C   0  0  0  0  0  0
    7.9551   -1.4252   21.8183 C   0  0  0  0  0  0
    9.4151   -2.3018   18.8632 C   0  0  0  0  0  0
    5.3366   -0.6214   25.2437 C   0  0  0  0  0  0
   12.2495    4.0544   24.9329 O   0  0  0  0  0  0
    7.7695   -1.9149   25.1229 C   0  0  0  0  0  0
    3.8398    0.2559   25.3619 Cl  0  0  0  0  0  0
    5.9639    0.4506   23.4948 H   0  0  0  0  0  0
   10.1746   -0.5157   23.8324 H   0  0  0  0  0  0
    9.9870    0.0758   22.1961 H   0  0  0  0  0  0
    8.9368    2.0435   22.8720 H   0  0  0  0  0  0
    8.3885    1.3584   24.3888 H   0  0  0  0  0  0
    9.3046    2.7941   25.9584 H   0  0  0  0  0  0
    9.5705    3.8737   24.5765 H   0  0  0  0  0  0
   13.3888    3.2423   23.4050 H   0  0  0  0  0  0
   13.0951    2.1704   24.7672 H   0  0  0  0  0  0
    9.9280   -3.5594   17.1914 H   0  0  0  0  0  0
    6.3987   -0.9148   19.2742 H   0  0  0  0  0  0
    9.1548   -0.1321   20.8038 H   0  0  0  0  0  0
   11.0546    3.0592   22.7006 H   0  0  0  0  0  0
   11.7767    1.4470   22.8527 H   0  0  0  0  0  0
    4.9284   -1.8445   26.9646 H   0  0  0  0  0  0
    7.1088   -2.9944   26.8432 H   0  0  0  0  0  0
    7.7561   -3.3648   16.1714 H   0  0  0  0  0  0
   11.6567    2.9367   26.5700 H   0  0  0  0  0  0
   10.9596    4.5470   26.4738 H   0  0  0  0  0  0
   10.3846   -2.3618   19.3352 H   0  0  0  0  0  0
    8.7311   -2.4052   25.0851 H   0  0  0  0  0  0
  1  6  1  0  0  0
  1  7  1  0  0  0
  1 14  1  0  0  0
  2 11  1  0  0  0
  2 18  2  0  0  0
  3  4  1  0  0  0
  3 12  1  0  0  0
  3 24  2  0  0  0
  4 22  2  0  0  0
  4 26  1  0  0  0
  5  6  1  0  0  0
  5 12  1  0  0  0
  5 27  1  0  0  0
  5 28  1  0  0  0
  6 29  1  0  0  0
  6 30  1  0  0  0
  7 19  1  0  0  0
  7 31  1  0  0  0
  7 32  1  0  0  0
  8 14  1  0  0  0
  8 23  1  0  0  0
  8 33  1  0  0  0
  8 34  1  0  0  0
  9 11  2  0  0  0
  9 13  1  0  0  0
  9 21  1  0  0  0
 10 18  1  0  0  0
 10 21  2  0  0  0
 10 35  1  0  0  0
 11 36  1  0  0  0
 12 20  1  0  0  0
 13 20  1  0  0  0
 13 37  1  0  0  0
 14 38  1  0  0  0
 14 39  1  0  0  0
 15 17  2  0  0  0
 15 22  1  0  0  0
 15 40  1  0  0  0
 16 20  2  0  0  0
 17 24  1  0  0  0
 17 41  1  0  0  0
 18 42  1  0  0  0
 19 23  1  0  0  0
 19 43  1  0  0  0
 19 44  1  0  0  0
 21 45  1  0  0  0
 22 25  1  0  0  0
 24 46  1  0  0  0
M  END
> <s_m_entry_id>
133

> <s_m_entry_name>
7gb7.pdb.1_ligand

> <s_pdb_PDB_TITLE>
GROUP DEPOSITION SARS-COV-2 MAIN PROTEASE IN COMPLEX WITH INHIBITORS FROM THE COVID MOONSHOT -- CRYSTAL STRUCTURE OF SARS-COV-2 MAIN PROTEASE IN COMPLEX WITH JOR-UNI-2FC98D0B-6 (MPRO-X10237)

> <s_pdb_PDB_ID>
7GB7

> <s_m_Source_File>
7gb7.pdb.gz

> <s_user_Compound_ID>
JOR-UNI-2fc98d0b-6

> <s_user_Monomer-Dimer>
Monomer

> <s_user_xcode>
Mpro-x10237

$$$$
