7GB8_ligand
                    3D
 Schrodinger Suite 2021-2.
 34 35  0  0  1  0            999 V2000
    8.5926   -0.8281   20.0929 N   0  0  0  0  0  0
    7.0604   -1.5983   18.3691 C   0  0  0  0  0  0
    8.3279   -1.5906   18.9420 C   0  0  0  0  0  0
    8.1080   -1.0857   21.3222 C   0  0  0  0  0  0
    8.4222   -0.0183   22.3492 C   0  0  0  0  0  0
    8.0856   -0.5196   23.7296 C   0  0  0  0  0  0
    8.6780   -1.7482   25.7185 C   0  0  0  0  0  0
    6.8694   -0.1855   24.3145 C   0  0  0  0  0  0
    4.9541   -0.9042   27.2499 F   0  0  0  0  0  0
    5.3174   -0.1199   26.2647 C   0  0  0  0  0  0
    4.2587   -0.0911   25.4431 F   0  0  0  0  0  0
    5.4705    1.1018   26.7927 F   0  0  0  0  0  0
    6.5600   -0.6093   25.5997 C   0  0  0  0  0  0
    7.4693   -1.4014   26.2935 C   0  0  0  0  0  0
    8.9853   -1.3033   24.4436 C   0  0  0  0  0  0
    7.4642   -2.0922   21.6081 O   0  0  0  0  0  0
    9.3394   -2.3952   18.3888 C   0  0  0  0  0  0
   10.6912   -2.5384   19.0393 C   0  0  0  0  0  0
    6.7499   -2.3472   17.3046 N   0  0  0  0  0  0
    7.7216   -3.1079   16.7783 C   0  0  0  0  0  0
    9.0096   -3.1496   17.2695 C   0  0  0  0  0  0
    9.1889   -0.0151   20.0339 H   0  0  0  0  0  0
    6.2767   -0.9817   18.7837 H   0  0  0  0  0  0
    7.8364    0.8755   22.1347 H   0  0  0  0  0  0
    9.4823    0.2304   22.3018 H   0  0  0  0  0  0
    9.3783   -2.3639   26.2635 H   0  0  0  0  0  0
    6.1530    0.4101   23.7683 H   0  0  0  0  0  0
    7.2258   -1.7456   27.2878 H   0  0  0  0  0  0
    9.9351   -1.5709   24.0046 H   0  0  0  0  0  0
   11.3133   -3.2054   18.4425 H   0  0  0  0  0  0
   11.1681   -1.5606   19.1064 H   0  0  0  0  0  0
   10.5712   -2.9530   20.0402 H   0  0  0  0  0  0
    7.5142   -3.7330   15.9223 H   0  0  0  0  0  0
    9.7594   -3.7623   16.7912 H   0  0  0  0  0  0
  1  3  1  0  0  0
  1  4  1  0  0  0
  1 22  1  0  0  0
  2  3  1  0  0  0
  2 19  2  0  0  0
  2 23  1  0  0  0
  3 17  2  0  0  0
  4  5  1  0  0  0
  4 16  2  0  0  0
  5  6  1  0  0  0
  5 24  1  0  0  0
  5 25  1  0  0  0
  6  8  1  0  0  0
  6 15  2  0  0  0
  7 14  2  0  0  0
  7 15  1  0  0  0
  7 26  1  0  0  0
  8 13  2  0  0  0
  8 27  1  0  0  0
  9 10  1  0  0  0
 10 11  1  0  0  0
 10 12  1  0  0  0
 10 13  1  0  0  0
 13 14  1  0  0  0
 14 28  1  0  0  0
 15 29  1  0  0  0
 17 18  1  0  0  0
 17 21  1  0  0  0
 18 30  1  0  0  0
 18 31  1  0  0  0
 18 32  1  0  0  0
 19 20  1  0  0  0
 20 21  2  0  0  0
 20 33  1  0  0  0
 21 34  1  0  0  0
M  END
> <s_m_entry_id>
135

> <s_m_entry_name>
7gb8.pdb.1_ligand

> <s_pdb_PDB_TITLE>
GROUP DEPOSITION SARS-COV-2 MAIN PROTEASE IN COMPLEX WITH INHIBITORS FROM THE COVID MOONSHOT -- CRYSTAL STRUCTURE OF SARS-COV-2 MAIN PROTEASE IN COMPLEX WITH JAN-GHE-83B26C96-14 (MPRO-X10247)

> <s_pdb_PDB_ID>
7GB8

> <s_m_Source_File>
7gb8.pdb.gz

> <s_user_Compound_ID>
AN-GHE-83b26c96-14

> <s_user_Monomer-Dimer>
Monomer

> <s_user_xcode>
Mpro-x10247

$$$$
