7GB9_ligand
                    3D
 Schrodinger Suite 2021-2.
 34 35  0  0  1  0            999 V2000
    6.9398   -2.1636   17.4306 N   0  0  0  0  0  0
    8.4088   -0.1804   23.7262 C   0  0  0  0  0  0
    9.2351   -0.1322   22.4736 C   0  0  0  0  0  0
    8.5701   -1.0567   21.4745 C   0  0  0  0  0  0
    8.5315   -1.5455   19.1045 C   0  0  0  0  0  0
    7.2752   -1.4691   18.5200 C   0  0  0  0  0  0
    9.1432   -3.0943   17.4056 C   0  0  0  0  0  0
    8.7974   -0.9722   24.7944 C   0  0  0  0  0  0
    7.8609   -2.0166   21.8124 O   0  0  0  0  0  0
    7.1264    0.3412   23.7310 C   0  0  0  0  0  0
    6.2321    0.0063   24.7262 C   0  0  0  0  0  0
    7.9045   -1.2940   25.7966 C   0  0  0  0  0  0
    6.5992   -0.8345   25.7623 C   0  0  0  0  0  0
    5.5964   -1.2828   26.7838 C   0  0  0  0  0  0
    8.8587   -0.7487   20.2091 N   0  0  0  0  0  0
    9.4906   -2.4084   18.5576 C   0  0  0  0  0  0
   10.8203   -2.6539   19.2250 C   0  0  0  0  0  0
    7.8758   -2.9481   16.8855 C   0  0  0  0  0  0
   10.2406   -0.4939   22.6886 H   0  0  0  0  0  0
    9.2384    0.8844   22.0804 H   0  0  0  0  0  0
    6.5547   -0.8125   18.9849 H   0  0  0  0  0  0
    9.8635   -3.7377   16.9223 H   0  0  0  0  0  0
    9.8093   -1.3453   24.8500 H   0  0  0  0  0  0
    6.8162    1.0188   22.9493 H   0  0  0  0  0  0
    5.2273    0.4018   24.7048 H   0  0  0  0  0  0
    8.2207   -1.9129   26.6233 H   0  0  0  0  0  0
    6.0826   -1.9353   27.5090 H   0  0  0  0  0  0
    5.1856   -0.4130   27.2964 H   0  0  0  0  0  0
    4.7913   -1.8262   26.2892 H   0  0  0  0  0  0
    9.3459    0.1102   19.9969 H   0  0  0  0  0  0
   11.4033   -3.3550   18.6277 H   0  0  0  0  0  0
   11.3631   -1.7127   19.3120 H   0  0  0  0  0  0
   10.6572   -3.0719   20.2184 H   0  0  0  0  0  0
    7.6552   -3.5092   15.9894 H   0  0  0  0  0  0
  1  6  1  0  0  0
  1 18  2  0  0  0
  2  3  1  0  0  0
  2  8  1  0  0  0
  2 10  2  0  0  0
  3  4  1  0  0  0
  3 19  1  0  0  0
  3 20  1  0  0  0
  4  9  2  0  0  0
  4 15  1  0  0  0
  5  6  2  0  0  0
  5 15  1  0  0  0
  5 16  1  0  0  0
  6 21  1  0  0  0
  7 16  2  0  0  0
  7 18  1  0  0  0
  7 22  1  0  0  0
  8 12  2  0  0  0
  8 23  1  0  0  0
 10 11  1  0  0  0
 10 24  1  0  0  0
 11 13  2  0  0  0
 11 25  1  0  0  0
 12 13  1  0  0  0
 12 26  1  0  0  0
 13 14  1  0  0  0
 14 27  1  0  0  0
 14 28  1  0  0  0
 14 29  1  0  0  0
 15 30  1  0  0  0
 16 17  1  0  0  0
 17 31  1  0  0  0
 17 32  1  0  0  0
 17 33  1  0  0  0
 18 34  1  0  0  0
M  END
> <s_m_entry_id>
137

> <s_m_entry_name>
7gb9.pdb.1_ligand

> <s_pdb_PDB_TITLE>
GROUP DEPOSITION SARS-COV-2 MAIN PROTEASE IN COMPLEX WITH INHIBITORS FROM THE COVID MOONSHOT -- CRYSTAL STRUCTURE OF SARS-COV-2 MAIN PROTEASE IN COMPLEX WITH JAN-GHE-83B26C96-11 (MPRO-X10248)

> <s_pdb_PDB_ID>
7GB9

> <s_m_Source_File>
7gb9.pdb.gz

> <s_user_Compound_ID>
AN-GHE-83b26c96-11

> <s_user_Monomer-Dimer>
Monomer

> <s_user_xcode>
Mpro-x10248

$$$$
