7GBC_ligand
                    3D
 Schrodinger Suite 2021-2.
 31 32  0  0  1  0            999 V2000
    8.9549   -1.5877   20.9463 N   0  0  0  0  0  0
    3.0316    0.3348   25.0465 N   0  0  0  0  0  0
    7.2911   -1.7055   19.1280 C   0  0  0  0  0  0
    8.5856   -1.9054   19.6199 C   0  0  0  0  0  0
    8.1057   -1.4455   21.9640 C   0  0  0  0  0  0
    8.6108   -0.6374   23.1432 C   0  0  0  0  0  0
    7.6487   -0.7840   24.3002 C   0  0  0  0  0  0
    5.8551   -1.3992   26.2757 C   0  0  0  0  0  0
    6.3549   -0.2798   24.2252 C   0  0  0  0  0  0
    4.0865   -0.0903   25.1366 C   0  0  0  0  0  0
    5.4311   -0.5991   25.2149 C   0  0  0  0  0  0
    7.1081   -1.8566   26.3938 N   0  0  0  0  0  0
    7.9709   -1.5465   25.4136 C   0  0  0  0  0  0
    7.0671   -2.0876   22.0291 O   0  0  0  0  0  0
    9.5645   -2.3940   18.7525 C   0  0  0  0  0  0
   10.9649   -2.6884   19.2269 C   0  0  0  0  0  0
    6.9166   -2.0316   17.8880 N   0  0  0  0  0  0
    7.8477   -2.5651   17.0898 C   0  0  0  0  0  0
    9.1633   -2.7461   17.4686 C   0  0  0  0  0  0
    9.9277   -1.4500   21.1804 H   0  0  0  0  0  0
    6.5345   -1.2666   19.7616 H   0  0  0  0  0  0
    8.6811    0.4128   22.8602 H   0  0  0  0  0  0
    9.5938   -1.0034   23.4398 H   0  0  0  0  0  0
    5.1595   -1.6784   27.0532 H   0  0  0  0  0  0
    6.0706    0.3571   23.4006 H   0  0  0  0  0  0
    8.9726   -1.9325   25.5322 H   0  0  0  0  0  0
   11.5614   -3.0581   18.3929 H   0  0  0  0  0  0
   11.4154   -1.7766   19.6191 H   0  0  0  0  0  0
   10.9318   -3.4435   20.0123 H   0  0  0  0  0  0
    7.5861   -2.8803   16.0905 H   0  0  0  0  0  0
    9.8792   -3.1589   16.7732 H   0  0  0  0  0  0
  1  4  1  0  0  0
  1  5  1  0  0  0
  1 20  1  0  0  0
  2 10  3  0  0  0
  3  4  1  0  0  0
  3 17  2  0  0  0
  3 21  1  0  0  0
  4 15  2  0  0  0
  5  6  1  0  0  0
  5 14  2  0  0  0
  6  7  1  0  0  0
  6 22  1  0  0  0
  6 23  1  0  0  0
  7  9  1  0  0  0
  7 13  2  0  0  0
  8 11  1  0  0  0
  8 12  2  0  0  0
  8 24  1  0  0  0
  9 11  2  0  0  0
  9 25  1  0  0  0
 10 11  1  0  0  0
 12 13  1  0  0  0
 13 26  1  0  0  0
 15 16  1  0  0  0
 15 19  1  0  0  0
 16 27  1  0  0  0
 16 28  1  0  0  0
 16 29  1  0  0  0
 17 18  1  0  0  0
 18 19  2  0  0  0
 18 30  1  0  0  0
 19 31  1  0  0  0
M  END
> <s_m_entry_id>
139

> <s_m_entry_name>
7gbc.pdb.1_ligand

> <s_pdb_PDB_TITLE>
GROUP DEPOSITION SARS-COV-2 MAIN PROTEASE IN COMPLEX WITH INHIBITORS FROM THE COVID MOONSHOT -- CRYSTAL STRUCTURE OF SARS-COV-2 MAIN PROTEASE IN COMPLEX WITH TRY-UNI-2EDDB1FF-1 (MPRO-X10314)

> <s_pdb_PDB_ID>
7GBC

> <s_m_Source_File>
7gbc.pdb.gz

> <s_user_Compound_ID>
TRY-UNI-2eddb1ff-1

> <s_user_Monomer-Dimer>
Monomer

> <s_user_xcode>
Mpro-x10314

$$$$
