7GBD_ligand
                    3D
 Schrodinger Suite 2021-2.
 39 41  0  0  1  0            999 V2000
    9.2276   -3.1206   17.4394 N   0  0  0  0  0  0
    5.3039   -5.6310   24.7057 N   0  0  0  0  0  0
    8.0486   -1.5755   21.5626 C   0  0  0  0  0  0
    8.7521   -0.8654   20.4212 C   0  0  0  0  0  0
    8.5442   -1.4902   19.0593 C   0  0  0  0  0  0
    9.4718   -2.3597   18.5128 C   0  0  0  0  0  0
    8.0029   -2.9988   16.9179 C   0  0  0  0  0  0
    7.1602   -2.4589   24.3404 C   0  0  0  0  0  0
    6.2833   -6.2590   26.4262 C   0  0  0  0  0  0
    5.8849   -1.6908   26.2381 C   0  0  0  0  0  0
    7.9353   -0.8337   22.6862 N   0  0  0  0  0  0
    7.0145   -2.2210   17.3680 N   0  0  0  0  0  0
    5.9717   -0.3791   25.7893 C   0  0  0  0  0  0
    6.4770   -2.7147   25.5156 C   0  0  0  0  0  0
    6.3168   -3.9397   26.1264 O   0  0  0  0  0  0
    6.6522   -0.1234   24.6055 C   0  0  0  0  0  0
    7.3096   -1.4703   18.4353 C   0  0  0  0  0  0
    6.5097   -5.1533   25.3841 C   0  0  2  0  0  0
    5.1377   -6.6891   25.5228 C   0  0  0  0  0  0
    5.3476    0.7475   26.5782 C   0  0  0  0  0  0
    7.6296   -2.7240   21.4557 O   0  0  0  0  0  0
    4.3417   -7.6284   25.4991 O   0  0  0  0  0  0
    7.2473   -1.1503   23.8803 C   0  0  0  0  0  0
    4.6518   -5.4678   23.9519 H   0  0  0  0  0  0
    9.8197   -0.8107   20.6337 H   0  0  0  0  0  0
    8.4324    0.1762   20.3927 H   0  0  0  0  0  0
   10.4349   -2.4053   18.9993 H   0  0  0  0  0  0
    7.7308   -3.5663   16.0401 H   0  0  0  0  0  0
    7.6170   -3.2706   23.7937 H   0  0  0  0  0  0
    5.8339   -5.7820   27.2972 H   0  0  0  0  0  0
    7.0819   -6.9880   26.2887 H   0  0  0  0  0  0
    5.3549   -1.9148   27.1521 H   0  0  0  0  0  0
    8.3775    0.0728   22.7396 H   0  0  0  0  0  0
    6.7265    0.8875   24.2329 H   0  0  0  0  0  0
    6.5268   -0.8260   18.8074 H   0  0  0  0  0  0
    7.4355   -5.2199   24.8127 H   0  0  0  0  0  0
    5.5235    1.6925   26.0643 H   0  0  0  0  0  0
    4.2747    0.5778   26.6683 H   0  0  0  0  0  0
    5.7936    0.7864   27.5720 H   0  0  0  0  0  0
  1  6  1  0  0  0
  1  7  2  0  0  0
  2 18  1  0  0  0
  2 19  1  0  0  0
  2 24  1  0  0  0
  3  4  1  0  0  0
  3 11  1  0  0  0
  3 21  2  0  0  0
  4  5  1  0  0  0
  4 25  1  0  0  0
  4 26  1  0  0  0
  5  6  2  0  0  0
  5 17  1  0  0  0
  6 27  1  0  0  0
  7 12  1  0  0  0
  7 28  1  0  0  0
  8 14  1  0  0  0
  8 23  2  0  0  0
  8 29  1  0  0  0
  9 18  1  0  0  0
  9 19  1  0  0  0
  9 30  1  0  0  0
  9 31  1  0  0  0
 10 13  1  0  0  0
 10 14  2  0  0  0
 10 32  1  0  0  0
 11 23  1  0  0  0
 11 33  1  0  0  0
 12 17  2  0  0  0
 13 16  2  0  0  0
 13 20  1  0  0  0
 14 15  1  0  0  0
 15 18  1  0  0  0
 16 23  1  0  0  0
 16 34  1  0  0  0
 17 35  1  0  0  0
 18 36  1  0  0  0
 19 22  2  0  0  0
 20 37  1  0  0  0
 20 38  1  0  0  0
 20 39  1  0  0  0
M  END
> <s_m_entry_id>
141

> <s_m_entry_name>
7gbd.pdb.1_ligand

> <s_pdb_PDB_TITLE>
GROUP DEPOSITION SARS-COV-2 MAIN PROTEASE IN COMPLEX WITH INHIBITORS FROM THE COVID MOONSHOT -- CRYSTAL STRUCTURE OF SARS-COV-2 MAIN PROTEASE IN COMPLEX WITH RAL-MED-2DE63AFB-2 (MPRO-X10322)

> <s_pdb_PDB_ID>
7GBD

> <s_m_Source_File>
7gbd.pdb.gz

> <s_user_Compound_ID>
RAL-MED-2de63afb-2

> <s_user_Monomer-Dimer>
Monomer

> <s_user_xcode>
Mpro-x10322

$$$$
