7GBE_ligand
                    3D
 Schrodinger Suite 2021-2.
 37 40  0  0  1  0            999 V2000
    6.7140   -1.5152   18.8228 N   0  0  0  0  0  0
    8.7527   -2.2368   18.3960 N   0  0  0  0  0  0
   10.1519   -2.5601   23.7306 C   0  0  0  0  0  0
   10.2274   -1.2249   23.0314 C   0  0  0  0  0  0
    8.8049   -0.6744   22.8054 C   0  0  1  0  0  0
    8.1694   -1.4256   21.6342 C   0  0  0  0  0  0
    7.9621   -1.5244   19.2555 C   0  0  0  0  0  0
   10.1628   -2.6113   18.6076 C   0  0  0  0  0  0
    7.8978   -0.9083   24.0013 C   0  0  0  0  0  0
    8.4642   -0.9388   20.4019 N   0  0  0  0  0  0
    6.6911   -2.2180   17.6260 N   0  0  0  0  0  0
   10.4554   -3.5680   19.7090 C   0  0  0  0  0  0
    6.1921   -1.4507   26.1570 C   0  0  0  0  0  0
    7.4646   -2.4153   21.7907 O   0  0  0  0  0  0
    7.4254   -2.0777   26.0800 C   0  0  0  0  0  0
    7.9049   -2.6287   17.3974 C   0  0  0  0  0  0
   10.5800   -4.0027   18.2854 C   0  0  0  0  0  0
    6.6586   -0.2759   24.1065 C   0  0  0  0  0  0
    5.8316   -0.5535   25.1766 C   0  0  0  0  0  0
    9.4729   -2.4689   25.0097 O   0  0  0  0  0  0
    8.2679   -1.8063   25.0087 C   0  0  0  0  0  0
    4.3247    0.3042   25.3211 Cl  0  0  0  0  0  0
   11.1595   -2.9475   23.8818 H   0  0  0  0  0  0
    9.6302   -3.2741   23.0933 H   0  0  0  0  0  0
   10.7268   -1.3462   22.0702 H   0  0  0  0  0  0
   10.7942   -0.5251   23.6454 H   0  0  0  0  0  0
    8.8521    0.3909   22.5796 H   0  0  0  0  0  0
   10.9032   -1.8305   18.4340 H   0  0  0  0  0  0
    9.0630   -0.1309   20.3081 H   0  0  0  0  0  0
    9.4417   -3.9169   19.9064 H   0  0  0  0  0  0
   11.4948   -3.2992   19.8975 H   0  0  0  0  0  0
    5.5263   -1.6679   26.9792 H   0  0  0  0  0  0
    7.7268   -2.7727   26.8498 H   0  0  0  0  0  0
    8.2813   -3.2030   16.5638 H   0  0  0  0  0  0
   11.6479   -3.8336   18.1477 H   0  0  0  0  0  0
    9.5949   -4.4512   18.1566 H   0  0  0  0  0  0
    6.3469    0.4303   23.3511 H   0  0  0  0  0  0
  1  7  2  0  0  0
  1 11  1  0  0  0
  2  7  1  0  0  0
  2  8  1  0  0  0
  2 16  1  0  0  0
  3  4  1  0  0  0
  3 20  1  0  0  0
  3 23  1  0  0  0
  3 24  1  0  0  0
  4  5  1  0  0  0
  4 25  1  0  0  0
  4 26  1  0  0  0
  5  6  1  0  0  0
  5  9  1  0  0  0
  5 27  1  0  0  0
  6 10  1  0  0  0
  6 14  2  0  0  0
  7 10  1  0  0  0
  8 12  1  0  0  0
  8 17  1  0  0  0
  8 28  1  0  0  0
  9 18  1  0  0  0
  9 21  2  0  0  0
 10 29  1  0  0  0
 11 16  2  0  0  0
 12 17  1  0  0  0
 12 30  1  0  0  0
 12 31  1  0  0  0
 13 15  2  0  0  0
 13 19  1  0  0  0
 13 32  1  0  0  0
 15 21  1  0  0  0
 15 33  1  0  0  0
 16 34  1  0  0  0
 17 35  1  0  0  0
 17 36  1  0  0  0
 18 19  2  0  0  0
 18 37  1  0  0  0
 19 22  1  0  0  0
 20 21  1  0  0  0
M  END
> <s_m_entry_id>
143

> <s_m_entry_name>
7gbe.pdb.1_ligand

> <s_pdb_PDB_TITLE>
GROUP DEPOSITION SARS-COV-2 MAIN PROTEASE IN COMPLEX WITH INHIBITORS FROM THE COVID MOONSHOT -- CRYSTAL STRUCTURE OF SARS-COV-2 MAIN PROTEASE IN COMPLEX WITH JAG-UCB-A3EF7265-20 (MPRO-X10324)

> <s_pdb_PDB_ID>
7GBE

> <s_m_Source_File>
7gbe.pdb.gz

> <s_user_Compound_ID>
JAG-UCB-a3ef7265-20

> <s_user_Monomer-Dimer>
Monomer

> <s_user_xcode>
Mpro-x10324

$$$$
