7GBF_ligand
                    3D
 Schrodinger Suite 2021-2.
 40 41  0  0  1  0            999 V2000
    6.8777   -2.1581   17.6581 N   0  0  0  0  0  0
    8.3047   -1.8088   21.9338 C   0  0  0  0  0  0
    8.3657   -1.7132   19.4957 C   0  0  0  0  0  0
    7.1449   -1.5798   18.8346 C   0  0  0  0  0  0
    7.8442   -2.8916   17.0996 C   0  0  0  0  0  0
    9.0892   -3.0756   17.6655 C   0  0  0  0  0  0
   10.7319   -2.6742   19.5298 C   0  0  0  0  0  0
    6.2154   -2.7712   25.7028 C   0  0  0  0  0  0
    5.2648   -0.6578   25.1705 C   0  0  0  0  0  0
    4.0061    0.5200   25.3741 Cl  0  0  0  0  0  0
    5.1969   -1.8469   25.8659 C   0  0  0  0  0  0
    7.2815   -2.4921   24.8601 C   0  0  0  0  0  0
    6.3182   -0.3655   24.3300 C   0  0  0  0  0  0
    7.3444   -1.2869   24.1679 C   0  0  0  0  0  0
    8.4793   -0.9761   23.2042 C   0  0  1  0  0  0
    9.9076   -1.0703   23.8409 C   0  0  0  0  0  0
   10.1174   -2.3496   24.6292 C   0  0  0  0  0  0
   11.0197   -0.8930   22.8141 C   0  0  0  0  0  0
    7.8647   -2.9535   21.9686 O   0  0  0  0  0  0
    8.5704   -1.1588   20.7822 N   0  0  0  0  0  0
    9.3821   -2.4829   18.8890 C   0  0  0  0  0  0
    6.3954   -0.9727   19.3206 H   0  0  0  0  0  0
    7.6719   -3.3807   16.1523 H   0  0  0  0  0  0
    9.8293   -3.6768   17.1585 H   0  0  0  0  0  0
   11.3534   -3.2998   18.8891 H   0  0  0  0  0  0
   11.2111   -1.7046   19.6652 H   0  0  0  0  0  0
   10.6093   -3.1568   20.4994 H   0  0  0  0  0  0
    6.1809   -3.7119   26.2322 H   0  0  0  0  0  0
    4.3712   -2.0642   26.5272 H   0  0  0  0  0  0
    8.0748   -3.2142   24.7356 H   0  0  0  0  0  0
    6.3422    0.5762   23.8017 H   0  0  0  0  0  0
    8.3480    0.0640   22.9059 H   0  0  0  0  0  0
    9.9944   -0.2450   24.5476 H   0  0  0  0  0  0
   11.1243   -2.3587   25.0466 H   0  0  0  0  0  0
    9.3888   -2.4021   25.4381 H   0  0  0  0  0  0
    9.9902   -3.2082   23.9699 H   0  0  0  0  0  0
   11.9877   -0.9674   23.3097 H   0  0  0  0  0  0
   10.9405   -1.6703   22.0541 H   0  0  0  0  0  0
   10.9275    0.0857   22.3432 H   0  0  0  0  0  0
    8.9384   -0.2185   20.8064 H   0  0  0  0  0  0
  1  4  1  0  0  0
  1  5  2  0  0  0
  2 15  1  0  0  0
  2 19  2  0  0  0
  2 20  1  0  0  0
  3  4  2  0  0  0
  3 20  1  0  0  0
  3 21  1  0  0  0
  4 22  1  0  0  0
  5  6  1  0  0  0
  5 23  1  0  0  0
  6 21  2  0  0  0
  6 24  1  0  0  0
  7 21  1  0  0  0
  7 25  1  0  0  0
  7 26  1  0  0  0
  7 27  1  0  0  0
  8 11  1  0  0  0
  8 12  2  0  0  0
  8 28  1  0  0  0
  9 10  1  0  0  0
  9 11  2  0  0  0
  9 13  1  0  0  0
 11 29  1  0  0  0
 12 14  1  0  0  0
 12 30  1  0  0  0
 13 14  2  0  0  0
 13 31  1  0  0  0
 14 15  1  0  0  0
 15 16  1  0  0  0
 15 32  1  0  0  0
 16 17  1  0  0  0
 16 18  1  0  0  0
 16 33  1  0  0  0
 17 34  1  0  0  0
 17 35  1  0  0  0
 17 36  1  0  0  0
 18 37  1  0  0  0
 18 38  1  0  0  0
 18 39  1  0  0  0
 20 40  1  0  0  0
M  END
> <s_m_entry_id>
145

> <s_m_entry_name>
7gbf.pdb.1_ligand

> <s_pdb_PDB_TITLE>
GROUP DEPOSITION SARS-COV-2 MAIN PROTEASE IN COMPLEX WITH INHIBITORS FROM THE COVID MOONSHOT -- CRYSTAL STRUCTURE OF SARS-COV-2 MAIN PROTEASE IN COMPLEX WITH JAN-GHE-83B26C96-9 (MPRO-X10327)

> <s_pdb_PDB_ID>
7GBF

> <s_m_Source_File>
7gbf.pdb.gz

> <s_user_Compound_ID>
JAN-GHE-83b26c96-9

> <s_user_Monomer-Dimer>
Monomer

> <s_user_xcode>
Mpro-x10327

$$$$
