7GBG_ligand
                    3D
 Schrodinger Suite 2021-2.
 36 37  0  0  1  0            999 V2000
    7.2762   -2.1199   17.3495 N   0  0  0  0  0  0
    8.3554   -1.5526   19.4033 C   0  0  0  0  0  0
    7.3356   -1.4262   18.4649 C   0  0  0  0  0  0
    9.3134   -3.1319   17.8853 C   0  0  0  0  0  0
    9.4068   -2.4390   19.0876 C   0  0  0  0  0  0
   10.6428   -2.5558   19.9430 C   0  0  0  0  0  0
    7.8798   -1.8973   25.3377 C   0  0  0  0  0  0
    5.4458   -0.6356   25.2312 C   0  0  0  0  0  0
    3.9577    0.2597   25.2226 Cl  0  0  0  0  0  0
    5.6841   -1.5395   26.2439 C   0  0  0  0  0  0
    6.9220   -2.1591   26.3041 C   0  0  0  0  0  0
    6.3840   -0.3757   24.2532 C   0  0  0  0  0  0
    7.6091   -1.0304   24.2866 C   0  0  0  0  0  0
    8.5571   -0.9043   23.1077 C   0  0  2  0  0  0
    8.8870    0.5570   22.7691 C   0  0  0  0  0  0
    9.7555    1.2177   23.8168 C   0  0  0  0  0  0
    7.9847   -1.7079   21.9351 C   0  0  0  0  0  0
    7.4480   -2.7988   22.1010 O   0  0  0  0  0  0
    8.0882   -1.1272   20.7178 N   0  0  0  0  0  0
    8.2832   -2.9876   17.0420 N   0  0  0  0  0  0
    6.5629   -0.7079   18.6959 H   0  0  0  0  0  0
   10.0930   -3.8217   17.5976 H   0  0  0  0  0  0
   11.3156   -3.2965   19.5109 H   0  0  0  0  0  0
   11.1467   -1.5903   19.9879 H   0  0  0  0  0  0
   10.3608   -2.8651   20.9494 H   0  0  0  0  0  0
    8.8494   -2.3694   25.3966 H   0  0  0  0  0  0
    4.9135   -1.7523   26.9701 H   0  0  0  0  0  0
    7.1393   -2.8477   27.1072 H   0  0  0  0  0  0
    6.1638    0.3327   23.4683 H   0  0  0  0  0  0
    9.4921   -1.3839   23.3972 H   0  0  0  0  0  0
    7.9609    1.1210   22.6581 H   0  0  0  0  0  0
    9.3890    0.6004   21.8026 H   0  0  0  0  0  0
    9.9567    2.2485   23.5253 H   0  0  0  0  0  0
    9.2398    1.2062   24.7770 H   0  0  0  0  0  0
   10.6968    0.6750   23.9040 H   0  0  0  0  0  0
    7.9144   -0.1504   20.9070 H   0  0  0  0  0  0
  1  3  1  0  0  0
  1 20  2  0  0  0
  2  3  2  0  0  0
  2  5  1  0  0  0
  2 19  1  0  0  0
  3 21  1  0  0  0
  4  5  2  0  0  0
  4 20  1  0  0  0
  4 22  1  0  0  0
  5  6  1  0  0  0
  6 23  1  0  0  0
  6 24  1  0  0  0
  6 25  1  0  0  0
  7 11  1  0  0  0
  7 13  2  0  0  0
  7 26  1  0  0  0
  8  9  1  0  0  0
  8 10  1  0  0  0
  8 12  2  0  0  0
 10 11  2  0  0  0
 10 27  1  0  0  0
 11 28  1  0  0  0
 12 13  1  0  0  0
 12 29  1  0  0  0
 13 14  1  0  0  0
 14 15  1  0  0  0
 14 17  1  0  0  0
 14 30  1  0  0  0
 15 16  1  0  0  0
 15 31  1  0  0  0
 15 32  1  0  0  0
 16 33  1  0  0  0
 16 34  1  0  0  0
 16 35  1  0  0  0
 17 18  2  0  0  0
 17 19  1  0  0  0
 19 36  1  0  0  0
M  END
> <s_m_entry_id>
147

> <s_m_entry_name>
7gbg.pdb.1_ligand

> <s_pdb_PDB_TITLE>
GROUP DEPOSITION SARS-COV-2 MAIN PROTEASE IN COMPLEX WITH INHIBITORS FROM THE COVID MOONSHOT -- CRYSTAL STRUCTURE OF SARS-COV-2 MAIN PROTEASE IN COMPLEX WITH JAN-GHE-83B26C96-1 (MPRO-X10329)

> <s_pdb_PDB_ID>
7GBG

> <s_m_Source_File>
7gbg.pdb.gz

> <s_user_Compound_ID>
JAN-GHE-83b26c96-1

> <s_user_Monomer-Dimer>
Monomer

> <s_user_xcode>
Mpro-x10329

$$$$
