7GBH_ligand
                    3D
 Schrodinger Suite 2021-2.
 34 35  0  0  1  0            999 V2000
    8.9483   -1.0489   20.4718 N   0  0  0  0  0  0
    7.5200   -1.4827   18.5105 C   0  0  0  0  0  0
    6.4625   -0.5262   18.9717 C   0  0  0  0  0  0
    8.7077   -1.7166   19.2321 C   0  0  0  0  0  0
    8.3957   -1.4273   21.6496 C   0  0  0  0  0  0
    8.8262   -0.5982   22.8442 C   0  0  0  0  0  0
    8.1760   -1.6709   25.0335 C   0  0  0  0  0  0
    5.7593   -0.3693   25.0446 C   0  0  0  0  0  0
    4.2646    0.5264   25.0898 Cl  0  0  0  0  0  0
    6.0220   -1.2941   26.0330 C   0  0  0  0  0  0
    7.2520   -1.9351   26.0322 C   0  0  0  0  0  0
    6.6679   -0.1019   24.0386 C   0  0  0  0  0  0
    7.8864   -0.7730   24.0153 C   0  0  0  0  0  0
    7.6012   -2.3591   21.7600 O   0  0  0  0  0  0
    9.6541   -2.6309   18.7538 C   0  0  0  0  0  0
   10.9270   -2.9327   19.5024 C   0  0  0  0  0  0
    7.2828   -2.1278   17.3625 N   0  0  0  0  0  0
    8.1949   -2.9965   16.9054 C   0  0  0  0  0  0
    9.3730   -3.2708   17.5579 C   0  0  0  0  0  0
    9.5606   -0.2463   20.5026 H   0  0  0  0  0  0
    5.6434   -0.5150   18.2526 H   0  0  0  0  0  0
    6.0865   -0.8412   19.9451 H   0  0  0  0  0  0
    6.8874    0.4742   19.0533 H   0  0  0  0  0  0
    8.8617    0.4539   22.5615 H   0  0  0  0  0  0
    9.8342   -0.8871   23.1418 H   0  0  0  0  0  0
    9.1357   -2.1661   25.0409 H   0  0  0  0  0  0
    5.2774   -1.5058   26.7861 H   0  0  0  0  0  0
    7.4886   -2.6423   26.8135 H   0  0  0  0  0  0
    6.4305    0.6248   23.2757 H   0  0  0  0  0  0
   11.5094   -3.6686   18.9480 H   0  0  0  0  0  0
   11.5094   -2.0180   19.6134 H   0  0  0  0  0  0
   10.6840   -3.3300   20.4879 H   0  0  0  0  0  0
    8.0221   -3.5231   15.9784 H   0  0  0  0  0  0
   10.0769   -3.9786   17.1458 H   0  0  0  0  0  0
  1  4  1  0  0  0
  1  5  1  0  0  0
  1 20  1  0  0  0
  2  3  1  0  0  0
  2  4  1  0  0  0
  2 17  2  0  0  0
  3 21  1  0  0  0
  3 22  1  0  0  0
  3 23  1  0  0  0
  4 15  2  0  0  0
  5  6  1  0  0  0
  5 14  2  0  0  0
  6 13  1  0  0  0
  6 24  1  0  0  0
  6 25  1  0  0  0
  7 11  1  0  0  0
  7 13  2  0  0  0
  7 26  1  0  0  0
  8  9  1  0  0  0
  8 10  1  0  0  0
  8 12  2  0  0  0
 10 11  2  0  0  0
 10 27  1  0  0  0
 11 28  1  0  0  0
 12 13  1  0  0  0
 12 29  1  0  0  0
 15 16  1  0  0  0
 15 19  1  0  0  0
 16 30  1  0  0  0
 16 31  1  0  0  0
 16 32  1  0  0  0
 17 18  1  0  0  0
 18 19  2  0  0  0
 18 33  1  0  0  0
 19 34  1  0  0  0
M  END
> <s_m_entry_id>
149

> <s_m_entry_name>
7gbh.pdb.1_ligand

> <s_pdb_PDB_TITLE>
GROUP DEPOSITION SARS-COV-2 MAIN PROTEASE IN COMPLEX WITH INHIBITORS FROM THE COVID MOONSHOT -- CRYSTAL STRUCTURE OF SARS-COV-2 MAIN PROTEASE IN COMPLEX WITH EDJ-MED-49816E9B-2 (MPRO-X10334)

> <s_pdb_PDB_ID>
7GBH

> <s_m_Source_File>
7gbh.pdb.gz

> <s_user_Compound_ID>
EDJ-MED-49816e9b-2

> <s_user_Monomer-Dimer>
Monomer

> <s_user_xcode>
Mpro-x10334

$$$$
