7GBI_ligand
                    3D
 Schrodinger Suite 2021-2.
 34 36  0  0  1  0            999 V2000
    8.5815   -0.9958   20.8455 N   0  0  0  0  0  0
    7.1676   -1.5292   18.9272 C   0  0  0  0  0  0
    8.3848   -1.6031   19.5948 C   0  0  0  0  0  0
    8.1963   -1.5509   21.9975 C   0  0  0  0  0  0
    8.7344   -0.8410   23.2391 C   0  0  2  0  0  0
    9.7664   -1.7032   23.9649 C   0  0  0  0  0  0
    6.9185   -2.0895   26.1793 C   0  0  0  0  0  0
    6.4285   -0.0991   24.2743 C   0  0  0  0  0  0
    4.0005    0.4619   25.2662 Cl  0  0  0  0  0  0
    5.5028   -0.4016   25.2471 C   0  0  0  0  0  0
    5.7303   -1.3810   26.1993 C   0  0  0  0  0  0
    7.6058   -0.8306   24.2352 C   0  0  0  0  0  0
    7.8291   -1.8140   25.1790 C   0  0  0  0  0  0
    8.9913   -2.5040   24.9018 O   0  0  0  0  0  0
    7.5091   -2.5688   22.0683 O   0  0  0  0  0  0
    9.4381   -2.3208   19.0128 C   0  0  0  0  0  0
   10.7555   -2.5117   19.7286 C   0  0  0  0  0  0
   11.6434   -3.3910   19.0449 O   0  0  0  0  0  0
    6.9583   -2.0970   17.7384 N   0  0  0  0  0  0
    7.9739   -2.7670   17.1813 C   0  0  0  0  0  0
    9.2156   -2.8968   17.7695 C   0  0  0  0  0  0
    9.0341   -0.0948   20.9038 H   0  0  0  0  0  0
    6.3404   -0.9945   19.3701 H   0  0  0  0  0  0
    9.1066    0.1597   23.0194 H   0  0  0  0  0  0
   10.4497   -1.0595   24.5189 H   0  0  0  0  0  0
   10.2568   -2.3609   23.2471 H   0  0  0  0  0  0
    7.1145   -2.8365   26.9342 H   0  0  0  0  0  0
    6.2287    0.6912   23.5658 H   0  0  0  0  0  0
    4.9877   -1.5933   26.9542 H   0  0  0  0  0  0
   10.5699   -2.8934   20.7326 H   0  0  0  0  0  0
   11.2376   -1.5435   19.8636 H   0  0  0  0  0  0
   12.4596   -3.4737   19.5435 H   0  0  0  0  0  0
    7.8446   -3.2423   16.2202 H   0  0  0  0  0  0
   10.0090   -3.4378   17.2753 H   0  0  0  0  0  0
  1  3  1  0  0  0
  1  4  1  0  0  0
  1 22  1  0  0  0
  2  3  1  0  0  0
  2 19  2  0  0  0
  2 23  1  0  0  0
  3 16  2  0  0  0
  4  5  1  0  0  0
  4 15  2  0  0  0
  5  6  1  0  0  0
  5 12  1  0  0  0
  5 24  1  0  0  0
  6 14  1  0  0  0
  6 25  1  0  0  0
  6 26  1  0  0  0
  7 11  2  0  0  0
  7 13  1  0  0  0
  7 27  1  0  0  0
  8 10  2  0  0  0
  8 12  1  0  0  0
  8 28  1  0  0  0
  9 10  1  0  0  0
 10 11  1  0  0  0
 11 29  1  0  0  0
 12 13  2  0  0  0
 13 14  1  0  0  0
 16 17  1  0  0  0
 16 21  1  0  0  0
 17 18  1  0  0  0
 17 30  1  0  0  0
 17 31  1  0  0  0
 18 32  1  0  0  0
 19 20  1  0  0  0
 20 21  2  0  0  0
 20 33  1  0  0  0
 21 34  1  0  0  0
M  END
> <s_m_entry_id>
151

> <s_m_entry_name>
7gbi.pdb.1_ligand

> <s_pdb_PDB_TITLE>
GROUP DEPOSITION SARS-COV-2 MAIN PROTEASE IN COMPLEX WITH INHIBITORS FROM THE COVID MOONSHOT -- CRYSTAL STRUCTURE OF SARS-COV-2 MAIN PROTEASE IN COMPLEX WITH JAG-UCB-A3EF7265-3 (MPRO-X10338)

> <s_pdb_PDB_ID>
7GBI

> <s_m_Source_File>
7gbi.pdb.gz

> <s_user_Compound_ID>
JAG-UCB-a3ef7265-3

> <s_user_Monomer-Dimer>
Monomer

> <s_user_xcode>
Mpro-x10338

$$$$
