7GBJ_ligand
                    3D
 Schrodinger Suite 2021-2.
 43 45  0  0  1  0            999 V2000
    8.6404   -3.2223   16.9609 N   0  0  0  0  0  0
    5.2100   -0.1428   25.5201 C   0  0  0  0  0  0
    6.2649    0.2834   24.7261 C   0  0  0  0  0  0
    7.2874   -0.6001   24.4115 C   0  0  0  0  0  0
    8.5001    1.0104   23.0689 C   0  0  0  0  0  0
    9.4131    0.9447   21.8802 C   0  0  0  0  0  0
    9.1351   -1.2179   18.8041 C   0  0  0  0  0  0
    9.9367   -3.1007   17.4523 C   0  0  0  0  0  0
   12.1742   -3.8717   17.6189 C   0  0  0  0  0  0
   11.4932   -2.0692   18.9874 C   0  0  0  0  0  0
   13.1376   -4.7612   17.2349 F   0  0  0  0  0  0
   10.9374   -3.9730   17.0362 C   0  0  0  0  0  0
   12.4809   -2.9512   18.5853 C   0  0  0  0  0  0
   10.2186   -2.1179   18.4206 C   0  0  0  0  0  0
    7.5813   -2.4554   17.3711 C   0  0  0  0  0  0
    6.4349   -2.7354   17.0073 O   0  0  0  0  0  0
    7.8877   -1.4133   18.3001 C   0  0  0  0  0  0
    9.4073   -0.0045   19.6325 C   0  0  0  0  0  0
   10.0500    0.9453   19.1818 O   0  0  0  0  0  0
    8.9718   -0.0305   20.8926 N   0  0  0  0  0  0
    8.3322   -0.3284   23.5631 O   0  0  0  0  0  0
    7.2588   -1.9134   24.9180 C   0  0  0  0  0  0
    8.2886   -2.7170   24.5043 O   0  0  0  0  0  0
    8.2848   -4.0796   24.9254 C   0  0  0  0  0  0
    5.1840   -1.4302   26.0200 C   0  0  0  0  0  0
    6.2068   -2.3204   25.7289 C   0  0  0  0  0  0
    8.4311   -3.9123   16.2536 H   0  0  0  0  0  0
    4.4008    0.5339   25.7518 H   0  0  0  0  0  0
    6.2870    1.2979   24.3564 H   0  0  0  0  0  0
    7.5327    1.4078   22.7618 H   0  0  0  0  0  0
    8.9559    1.6283   23.8427 H   0  0  0  0  0  0
   10.4212    0.6947   22.2109 H   0  0  0  0  0  0
    9.4743    1.9288   21.4154 H   0  0  0  0  0  0
   11.7044   -1.3321   19.7481 H   0  0  0  0  0  0
   10.7303   -4.7071   16.2716 H   0  0  0  0  0  0
   13.4724   -2.9270   19.0129 H   0  0  0  0  0  0
    7.0768   -0.7660   18.5997 H   0  0  0  0  0  0
    8.3166   -0.7410   21.1859 H   0  0  0  0  0  0
    9.1597   -4.5881   24.5203 H   0  0  0  0  0  0
    8.3110   -4.1241   26.0142 H   0  0  0  0  0  0
    7.3807   -4.5696   24.5640 H   0  0  0  0  0  0
    4.3623   -1.7510   26.6433 H   0  0  0  0  0  0
    6.1893   -3.3239   26.1277 H   0  0  0  0  0  0
  1  8  1  0  0  0
  1 15  1  0  0  0
  1 27  1  0  0  0
  2  3  1  0  0  0
  2 25  2  0  0  0
  2 28  1  0  0  0
  3  4  2  0  0  0
  3 29  1  0  0  0
  4 21  1  0  0  0
  4 22  1  0  0  0
  5  6  1  0  0  0
  5 21  1  0  0  0
  5 30  1  0  0  0
  5 31  1  0  0  0
  6 20  1  0  0  0
  6 32  1  0  0  0
  6 33  1  0  0  0
  7 14  1  0  0  0
  7 17  2  0  0  0
  7 18  1  0  0  0
  8 12  1  0  0  0
  8 14  2  0  0  0
  9 11  1  0  0  0
  9 12  2  0  0  0
  9 13  1  0  0  0
 10 13  2  0  0  0
 10 14  1  0  0  0
 10 34  1  0  0  0
 12 35  1  0  0  0
 13 36  1  0  0  0
 15 16  2  0  0  0
 15 17  1  0  0  0
 17 37  1  0  0  0
 18 19  2  0  0  0
 18 20  1  0  0  0
 20 38  1  0  0  0
 22 23  1  0  0  0
 22 26  2  0  0  0
 23 24  1  0  0  0
 24 39  1  0  0  0
 24 40  1  0  0  0
 24 41  1  0  0  0
 25 26  1  0  0  0
 25 42  1  0  0  0
 26 43  1  0  0  0
M  END
> <s_m_entry_id>
153

> <s_m_entry_name>
7gbj.pdb.1_ligand

> <s_pdb_PDB_TITLE>
GROUP DEPOSITION SARS-COV-2 MAIN PROTEASE IN COMPLEX WITH INHIBITORS FROM THE COVID MOONSHOT -- CRYSTAL STRUCTURE OF SARS-COV-2 MAIN PROTEASE IN COMPLEX WITH MAT-POS-590AC91E-32 (MPRO-X10355)

> <s_pdb_PDB_ID>
7GBJ

> <s_m_Source_File>
7gbj.pdb.gz

> <s_user_Compound_ID>
MAT-POS-590ac91e-32

> <s_user_Monomer-Dimer>
Monomer

> <s_user_xcode>
Mpro-x10355

$$$$
