7GBK_ligand
                    3D
 Schrodinger Suite 2021-2.
 32 33  0  0  1  0            999 V2000
    8.5055   -0.8102   20.7272 N   0  0  0  0  0  0
    7.1373   -1.4598   18.8091 C   0  0  0  0  0  0
    8.3432   -1.5014   19.5100 C   0  0  0  0  0  0
    7.8763   -1.1055   21.8820 C   0  0  0  0  0  0
    8.0815   -0.0788   22.9756 C   0  0  0  0  0  0
    7.3866   -0.5013   24.2476 C   0  0  0  0  0  0
    5.4155   -0.5875   25.6320 C   0  0  0  0  0  0
    8.0595   -1.2713   25.1883 C   0  0  0  0  0  0
    7.1946   -2.1146   22.0578 O   0  0  0  0  0  0
    6.9368   -2.1041   17.6561 N   0  0  0  0  0  0
    7.9580   -2.8124   17.1621 C   0  0  0  0  0  0
    9.1829   -2.9249   17.7881 C   0  0  0  0  0  0
    9.4022   -2.2665   18.9913 C   0  0  0  0  0  0
   10.7110   -2.4222   19.7226 C   0  0  0  0  0  0
    7.4174   -1.6895   26.3427 C   0  0  0  0  0  0
    8.1232   -2.4011   27.2612 O   0  0  0  0  0  0
    6.0871   -1.3625   26.5642 C   0  0  0  0  0  0
    6.0648   -0.1553   24.4875 C   0  0  0  0  0  0
    9.1358   -0.0228   20.7807 H   0  0  0  0  0  0
    6.3078   -0.8859   19.1951 H   0  0  0  0  0  0
    7.6869    0.8833   22.6489 H   0  0  0  0  0  0
    9.1481    0.0395   23.1669 H   0  0  0  0  0  0
    4.3826   -0.3188   25.7969 H   0  0  0  0  0  0
    9.0903   -1.5478   25.0222 H   0  0  0  0  0  0
    7.8482   -3.3359   16.2238 H   0  0  0  0  0  0
    9.9644   -3.5223   17.3423 H   0  0  0  0  0  0
   11.3811   -3.0534   19.1389 H   0  0  0  0  0  0
   11.1673   -1.4425   19.8645 H   0  0  0  0  0  0
   10.5325   -2.8834   20.6939 H   0  0  0  0  0  0
    7.5542   -2.6208   28.0025 H   0  0  0  0  0  0
    5.5750   -1.7050   27.4513 H   0  0  0  0  0  0
    5.5298    0.4580   23.7776 H   0  0  0  0  0  0
  1  3  1  0  0  0
  1  4  1  0  0  0
  1 19  1  0  0  0
  2  3  1  0  0  0
  2 10  2  0  0  0
  2 20  1  0  0  0
  3 13  2  0  0  0
  4  5  1  0  0  0
  4  9  2  0  0  0
  5  6  1  0  0  0
  5 21  1  0  0  0
  5 22  1  0  0  0
  6  8  1  0  0  0
  6 18  2  0  0  0
  7 17  2  0  0  0
  7 18  1  0  0  0
  7 23  1  0  0  0
  8 15  2  0  0  0
  8 24  1  0  0  0
 10 11  1  0  0  0
 11 12  2  0  0  0
 11 25  1  0  0  0
 12 13  1  0  0  0
 12 26  1  0  0  0
 13 14  1  0  0  0
 14 27  1  0  0  0
 14 28  1  0  0  0
 14 29  1  0  0  0
 15 16  1  0  0  0
 15 17  1  0  0  0
 16 30  1  0  0  0
 17 31  1  0  0  0
 18 32  1  0  0  0
M  END
> <s_m_entry_id>
155

> <s_m_entry_name>
7gbk.pdb.1_ligand

> <s_pdb_PDB_TITLE>
GROUP DEPOSITION SARS-COV-2 MAIN PROTEASE IN COMPLEX WITH INHIBITORS FROM THE COVID MOONSHOT -- CRYSTAL STRUCTURE OF SARS-COV-2 MAIN PROTEASE IN COMPLEX WITH ALP-POS-95B75B4D-2 (MPRO-X10359)

> <s_pdb_PDB_ID>
7GBK

> <s_m_Source_File>
7gbk.pdb.gz

> <s_user_Compound_ID>
ALP-POS-95b75b4d-2

> <s_user_Monomer-Dimer>
Monomer

> <s_user_xcode>
Mpro-x10359

$$$$
