7GBL_ligand
                    3D
 Schrodinger Suite 2021-2.
 37 39  0  0  1  0            999 V2000
    7.6561   -0.7633   22.8128 N   0  0  0  0  0  0
    9.2041   -3.1470   17.5864 C   0  0  0  0  0  0
    7.9788   -3.0124   16.9604 C   0  0  0  0  0  0
    7.2111   -1.5990   18.5919 C   0  0  0  0  0  0
    6.9442   -1.0450   23.9994 C   0  0  0  0  0  0
    6.0539   -0.1173   24.5234 C   0  0  0  0  0  0
    5.3923   -1.7013   26.2127 C   0  0  0  0  0  0
    6.5449   -6.2462   26.1809 C   0  0  0  0  0  0
    7.0807   -2.2934   24.5962 C   0  0  0  0  0  0
    6.9829   -2.2527   17.4450 N   0  0  0  0  0  0
    4.9115   -5.4062   25.2152 N   0  0  0  0  0  0
    8.5791   -0.9139   20.5950 C   0  0  0  0  0  0
    6.2994   -2.6130   25.6962 C   0  0  0  0  0  0
    6.4422   -3.8473   26.2965 O   0  0  0  0  0  0
    8.4023   -1.6642   19.2957 C   0  0  0  0  0  0
    5.2747   -0.4520   25.6201 C   0  0  0  0  0  0
    6.3164   -4.9563   25.3864 C   0  0  1  0  0  0
    5.1811   -6.6547   25.6468 C   0  0  0  0  0  0
    7.8777   -1.5831   21.7618 C   0  0  0  0  0  0
    7.5407   -2.7661   21.7263 O   0  0  0  0  0  0
    4.5450   -7.7076   25.5665 O   0  0  0  0  0  0
    9.4123   -2.4586   18.7682 C   0  0  0  0  0  0
    8.0728    0.1468   22.6779 H   0  0  0  0  0  0
    9.9666   -3.7761   17.1513 H   0  0  0  0  0  0
    7.7856   -3.5330   16.0341 H   0  0  0  0  0  0
    6.4407   -0.9751   19.0205 H   0  0  0  0  0  0
    5.9697    0.8624   24.0766 H   0  0  0  0  0  0
    4.7870   -1.9665   27.0668 H   0  0  0  0  0  0
    6.4072   -5.9951   27.2326 H   0  0  0  0  0  0
    7.2842   -6.8271   25.6295 H   0  0  0  0  0  0
    7.7911   -3.0053   24.2026 H   0  0  0  0  0  0
    3.9723   -5.1598   24.9372 H   0  0  0  0  0  0
    8.2022    0.1024   20.4805 H   0  0  0  0  0  0
    9.6421   -0.8198   20.8171 H   0  0  0  0  0  0
    4.5696    0.2618   26.0196 H   0  0  0  0  0  0
    6.8924   -4.8694   24.4651 H   0  0  0  0  0  0
   10.3597   -2.5391   19.2803 H   0  0  0  0  0  0
  1  5  1  0  0  0
  1 19  1  0  0  0
  1 23  1  0  0  0
  2  3  1  0  0  0
  2 22  2  0  0  0
  2 24  1  0  0  0
  3 10  2  0  0  0
  3 25  1  0  0  0
  4 10  1  0  0  0
  4 15  2  0  0  0
  4 26  1  0  0  0
  5  6  1  0  0  0
  5  9  2  0  0  0
  6 16  2  0  0  0
  6 27  1  0  0  0
  7 13  2  0  0  0
  7 16  1  0  0  0
  7 28  1  0  0  0
  8 17  1  0  0  0
  8 18  1  0  0  0
  8 29  1  0  0  0
  8 30  1  0  0  0
  9 13  1  0  0  0
  9 31  1  0  0  0
 11 17  1  0  0  0
 11 18  1  0  0  0
 11 32  1  0  0  0
 12 15  1  0  0  0
 12 19  1  0  0  0
 12 33  1  0  0  0
 12 34  1  0  0  0
 13 14  1  0  0  0
 14 17  1  0  0  0
 15 22  1  0  0  0
 16 35  1  0  0  0
 17 36  1  0  0  0
 18 21  2  0  0  0
 19 20  2  0  0  0
 22 37  1  0  0  0
M  END
> <s_m_entry_id>
157

> <s_m_entry_name>
7gbl.pdb.1_ligand

> <s_pdb_PDB_TITLE>
GROUP DEPOSITION SARS-COV-2 MAIN PROTEASE IN COMPLEX WITH INHIBITORS FROM THE COVID MOONSHOT -- CRYSTAL STRUCTURE OF SARS-COV-2 MAIN PROTEASE IN COMPLEX WITH RAL-MED-2DE63AFB-1 (MPRO-X10371)

> <s_pdb_PDB_ID>
7GBL

> <s_m_Source_File>
7gbl.pdb.gz

> <s_user_Compound_ID>
RAL-MED-2de63afb-1

> <s_user_Monomer-Dimer>
Monomer

> <s_user_xcode>
Mpro-x10371

$$$$
