7GBM_ligand
                    3D
 Schrodinger Suite 2021-2.
 38 40  0  0  1  0            999 V2000
    7.0800   -2.1794   17.5260 N   0  0  0  0  0  0
   11.8825   -2.7818   18.8880 N   0  0  0  0  0  0
    7.2748   -1.5366   18.6806 C   0  0  0  0  0  0
    8.0799   -2.9357   17.0590 C   0  0  0  0  0  0
    9.2952   -3.0998   17.6972 C   0  0  0  0  0  0
    9.4874   -2.4344   18.9004 C   0  0  0  0  0  0
   10.9228   -2.7689   20.9268 C   0  0  0  0  0  0
   12.7912   -3.0402   19.8199 C   0  0  0  0  0  0
    6.9274   -1.9942   25.9958 C   0  0  0  0  0  0
    5.2751   -0.4943   25.1738 C   0  0  0  0  0  0
    3.6771    0.1863   25.2668 Cl  0  0  0  0  0  0
    5.6439   -1.4797   26.0674 C   0  0  0  0  0  0
    7.8101   -1.5419   25.0269 C   0  0  0  0  0  0
    6.1417   -0.0348   24.2025 C   0  0  0  0  0  0
    7.4174   -0.5785   24.1050 C   0  0  0  0  0  0
    8.3247   -0.2006   22.9392 C   0  0  1  0  0  0
    9.7855   -0.0607   23.3826 C   0  0  0  0  0  0
    8.1020   -1.2327   21.8277 C   0  0  0  0  0  0
    7.4751   -2.2713   22.0282 O   0  0  0  0  0  0
    8.6120   -0.8965   20.6129 N   0  0  0  0  0  0
    8.4580   -1.6224   19.4074 C   0  0  0  0  0  0
   10.7251   -2.6233   19.5908 N   0  0  0  0  0  0
   12.2487   -3.0452   21.1030 C   0  0  0  0  0  0
    6.4931   -0.9146   19.0909 H   0  0  0  0  0  0
    7.9648   -3.4667   16.1257 H   0  0  0  0  0  0
   10.0553   -3.7286   17.2577 H   0  0  0  0  0  0
   10.0939   -2.6593   21.6104 H   0  0  0  0  0  0
   13.8187   -3.2167   19.5380 H   0  0  0  0  0  0
    7.2454   -2.7516   26.6969 H   0  0  0  0  0  0
    4.9544   -1.8500   26.8116 H   0  0  0  0  0  0
    8.8137   -1.9384   24.9834 H   0  0  0  0  0  0
    5.8274    0.7434   23.5228 H   0  0  0  0  0  0
    7.9970    0.7687   22.5634 H   0  0  0  0  0  0
   10.4017    0.2092   22.5250 H   0  0  0  0  0  0
    9.8620    0.7162   24.1433 H   0  0  0  0  0  0
   10.1328   -1.0079   23.7952 H   0  0  0  0  0  0
    9.1615   -0.0552   20.5112 H   0  0  0  0  0  0
   12.6388   -3.2086   22.0968 H   0  0  0  0  0  0
  1  3  1  0  0  0
  1  4  2  0  0  0
  2  8  2  0  0  0
  2 22  1  0  0  0
  3 21  2  0  0  0
  3 24  1  0  0  0
  4  5  1  0  0  0
  4 25  1  0  0  0
  5  6  2  0  0  0
  5 26  1  0  0  0
  6 21  1  0  0  0
  6 22  1  0  0  0
  7 22  1  0  0  0
  7 23  2  0  0  0
  7 27  1  0  0  0
  8 23  1  0  0  0
  8 28  1  0  0  0
  9 12  1  0  0  0
  9 13  2  0  0  0
  9 29  1  0  0  0
 10 11  1  0  0  0
 10 12  2  0  0  0
 10 14  1  0  0  0
 12 30  1  0  0  0
 13 15  1  0  0  0
 13 31  1  0  0  0
 14 15  2  0  0  0
 14 32  1  0  0  0
 15 16  1  0  0  0
 16 17  1  0  0  0
 16 18  1  0  0  0
 16 33  1  0  0  0
 17 34  1  0  0  0
 17 35  1  0  0  0
 17 36  1  0  0  0
 18 19  2  0  0  0
 18 20  1  0  0  0
 20 21  1  0  0  0
 20 37  1  0  0  0
 23 38  1  0  0  0
M  END
> <s_m_entry_id>
159

> <s_m_entry_name>
7gbm.pdb.1_ligand

> <s_pdb_PDB_TITLE>
GROUP DEPOSITION SARS-COV-2 MAIN PROTEASE IN COMPLEX WITH INHIBITORS FROM THE COVID MOONSHOT -- CRYSTAL STRUCTURE OF SARS-COV-2 MAIN PROTEASE IN COMPLEX WITH JAN-GHE-83B26C96-3 (MPRO-X10377)

> <s_pdb_PDB_ID>
7GBM

> <s_m_Source_File>
7gbm.pdb.gz

> <s_user_Compound_ID>
JAN-GHE-83b26c96-3

> <s_user_Monomer-Dimer>
Monomer

> <s_user_xcode>
Mpro-x10377

$$$$
