7GBN_ligand
                    3D
 Schrodinger Suite 2021-2.
 36 38  0  0  1  0            999 V2000
    6.9407   -2.2802   17.5171 N   0  0  0  0  0  0
    5.4944   -5.8154   24.6426 N   0  0  0  0  0  0
    8.6514   -0.9995   20.6150 C   0  0  0  0  0  0
    8.4577   -1.5780   19.2316 C   0  0  0  0  0  0
    7.2220   -1.5621   18.6090 C   0  0  0  0  0  0
    7.9416   -3.0374   17.0521 C   0  0  0  0  0  0
    9.3997   -2.4230   18.6643 C   0  0  0  0  0  0
    6.0877   -2.7830   25.6060 C   0  0  0  0  0  0
    5.3802   -6.9160   25.4094 C   0  0  0  0  0  0
    7.6371   -0.9223   22.7958 N   0  0  0  0  0  0
    9.1643   -3.1633   17.5730 N   0  0  0  0  0  0
    6.1471   -0.2150   24.5577 C   0  0  0  0  0  0
    6.4912   -5.1795   25.5019 C   0  0  1  0  0  0
    5.9916   -4.0214   26.2055 O   0  0  0  0  0  0
    6.8945   -1.2273   23.9611 C   0  0  0  0  0  0
    6.8734   -2.5148   24.4923 C   0  0  0  0  0  0
    4.6721    0.4625   26.2473 F   0  0  0  0  0  0
    6.3473   -6.3720   26.4536 C   0  0  0  0  0  0
    5.3273   -1.7897   26.2066 C   0  0  0  0  0  0
    5.3855   -0.5326   25.6555 C   0  0  0  0  0  0
    7.5038   -2.8674   21.6025 O   0  0  0  0  0  0
    4.7185   -7.9441   25.2730 O   0  0  0  0  0  0
    7.8766   -1.7010   21.7135 C   0  0  0  0  0  0
    4.9448   -5.7279   23.7997 H   0  0  0  0  0  0
    8.3852    0.0575   20.6044 H   0  0  0  0  0  0
    9.7128   -1.0043   20.8626 H   0  0  0  0  0  0
    6.4656   -0.9289   19.0485 H   0  0  0  0  0  0
    7.8001   -3.6320   16.1618 H   0  0  0  0  0  0
   10.3826   -2.5086   19.1037 H   0  0  0  0  0  0
    8.0729   -0.0165   22.6973 H   0  0  0  0  0  0
    6.1768    0.7869   24.1554 H   0  0  0  0  0  0
    7.4784   -5.0599   25.0557 H   0  0  0  0  0  0
    7.4622   -3.3017   24.0446 H   0  0  0  0  0  0
    7.2639   -6.9554   26.3665 H   0  0  0  0  0  0
    5.7425   -6.0314   27.2941 H   0  0  0  0  0  0
    4.7227   -2.0208   27.0712 H   0  0  0  0  0  0
  1  5  1  0  0  0
  1  6  2  0  0  0
  2  9  1  0  0  0
  2 13  1  0  0  0
  2 24  1  0  0  0
  3  4  1  0  0  0
  3 23  1  0  0  0
  3 25  1  0  0  0
  3 26  1  0  0  0
  4  5  2  0  0  0
  4  7  1  0  0  0
  5 27  1  0  0  0
  6 11  1  0  0  0
  6 28  1  0  0  0
  7 11  2  0  0  0
  7 29  1  0  0  0
  8 14  1  0  0  0
  8 16  1  0  0  0
  8 19  2  0  0  0
  9 18  1  0  0  0
  9 22  2  0  0  0
 10 15  1  0  0  0
 10 23  1  0  0  0
 10 30  1  0  0  0
 12 15  1  0  0  0
 12 20  2  0  0  0
 12 31  1  0  0  0
 13 14  1  0  0  0
 13 18  1  0  0  0
 13 32  1  0  0  0
 15 16  2  0  0  0
 16 33  1  0  0  0
 17 20  1  0  0  0
 18 34  1  0  0  0
 18 35  1  0  0  0
 19 20  1  0  0  0
 19 36  1  0  0  0
 21 23  2  0  0  0
M  END
> <s_m_entry_id>
161

> <s_m_entry_name>
7gbn.pdb.1_ligand

> <s_pdb_PDB_TITLE>
GROUP DEPOSITION SARS-COV-2 MAIN PROTEASE IN COMPLEX WITH INHIBITORS FROM THE COVID MOONSHOT -- CRYSTAL STRUCTURE OF SARS-COV-2 MAIN PROTEASE IN COMPLEX WITH RAL-MED-2DE63AFB-14 (MPRO-X10387)

> <s_pdb_PDB_ID>
7GBN

> <s_m_Source_File>
7gbn.pdb.gz

> <s_user_Compound_ID>
RAL-MED-2de63afb-14

> <s_user_Monomer-Dimer>
Monomer

> <s_user_xcode>
Mpro-x10387

$$$$
