7GBO_ligand
                    3D
 Schrodinger Suite 2021-2.
 35 37  0  0  1  0            999 V2000
    8.5650   -0.7122   20.7685 N   0  0  0  0  0  0
    7.2015   -1.4673   18.8799 C   0  0  0  0  0  0
    8.4202   -1.4232   19.5549 C   0  0  0  0  0  0
    8.2092   -1.2145   21.9663 C   0  0  0  0  0  0
    8.5487   -0.3795   23.2159 C   0  0  0  0  0  0
    9.1033    1.0222   22.9785 C   0  0  0  0  0  0
    7.6262   -0.6956   24.3899 C   0  0  0  0  0  0
    5.7383   -1.6958   26.1873 C   0  0  0  0  0  0
    6.3372   -0.1767   24.4142 C   0  0  0  0  0  0
    3.8270    0.0242   25.3653 Cl  0  0  0  0  0  0
    5.4181   -0.6795   25.3107 C   0  0  0  0  0  0
    7.0374   -2.1812   26.1961 C   0  0  0  0  0  0
    7.9781   -1.6704   25.3177 C   0  0  0  0  0  0
   10.0304   -0.0629   23.4028 C   0  0  0  0  0  0
    7.6431   -2.2938   22.0746 O   0  0  0  0  0  0
    9.5060   -2.1491   19.0328 C   0  0  0  0  0  0
   10.8431   -2.1957   19.7265 C   0  0  0  0  0  0
    7.0014   -2.1717   17.7634 N   0  0  0  0  0  0
    8.0460   -2.8489   17.2680 C   0  0  0  0  0  0
    9.2930   -2.8631   17.8580 C   0  0  0  0  0  0
    8.9520    0.2208   20.7641 H   0  0  0  0  0  0
    6.3552   -0.9121   19.2566 H   0  0  0  0  0  0
    8.8903    1.4649   23.9515 H   0  0  0  0  0  0
    9.2542    0.9736   21.9001 H   0  0  0  0  0  0
    4.9840   -2.0966   26.8482 H   0  0  0  0  0  0
    6.0609    0.6152   23.7338 H   0  0  0  0  0  0
    7.3181   -2.9602   26.8895 H   0  0  0  0  0  0
    8.9936   -2.0360   25.3579 H   0  0  0  0  0  0
   10.4025   -0.3708   22.4257 H   0  0  0  0  0  0
   10.0386    0.1205   24.4773 H   0  0  0  0  0  0
   11.5315   -2.8124   19.1486 H   0  0  0  0  0  0
   11.2445   -1.1858   19.8112 H   0  0  0  0  0  0
   10.7219   -2.6227   20.7220 H   0  0  0  0  0  0
    7.9357   -3.4230   16.3599 H   0  0  0  0  0  0
   10.1014   -3.4243   17.4131 H   0  0  0  0  0  0
  1  3  1  0  0  0
  1  4  1  0  0  0
  1 21  1  0  0  0
  2  3  1  0  0  0
  2 18  2  0  0  0
  2 22  1  0  0  0
  3 16  2  0  0  0
  4  5  1  0  0  0
  4 15  2  0  0  0
  5  6  1  0  0  0
  5  7  1  0  0  0
  5 14  1  0  0  0
  6 14  1  0  0  0
  6 23  1  0  0  0
  6 24  1  0  0  0
  7  9  1  0  0  0
  7 13  2  0  0  0
  8 11  1  0  0  0
  8 12  2  0  0  0
  8 25  1  0  0  0
  9 11  2  0  0  0
  9 26  1  0  0  0
 10 11  1  0  0  0
 12 13  1  0  0  0
 12 27  1  0  0  0
 13 28  1  0  0  0
 14 29  1  0  0  0
 14 30  1  0  0  0
 16 17  1  0  0  0
 16 20  1  0  0  0
 17 31  1  0  0  0
 17 32  1  0  0  0
 17 33  1  0  0  0
 18 19  1  0  0  0
 19 20  2  0  0  0
 19 34  1  0  0  0
 20 35  1  0  0  0
M  END
> <s_m_entry_id>
163

> <s_m_entry_name>
7gbo.pdb.1_ligand

> <s_pdb_PDB_TITLE>
GROUP DEPOSITION SARS-COV-2 MAIN PROTEASE IN COMPLEX WITH INHIBITORS FROM THE COVID MOONSHOT -- CRYSTAL STRUCTURE OF SARS-COV-2 MAIN PROTEASE IN COMPLEX WITH JAN-GHE-83B26C96-20 (MPRO-X10392)

> <s_pdb_PDB_ID>
7GBO

> <s_m_Source_File>
7gbo.pdb.gz

> <s_user_Compound_ID>
JAN-GHE-83b26c96-20

> <s_user_Monomer-Dimer>
Monomer

> <s_user_xcode>
Mpro-x10392

$$$$
