7GBP_ligand
                    3D
 Schrodinger Suite 2021-2.
 39 40  0  0  1  0            999 V2000
    8.5891   -0.9453   20.8607 N   0  0  0  0  0  0
    8.4550   -1.4975   19.5646 C   0  0  0  0  0  0
    7.2423   -1.4624   18.8785 C   0  0  0  0  0  0
    8.0580   -2.7591   17.1826 C   0  0  0  0  0  0
    9.3060   -2.8337   17.7688 C   0  0  0  0  0  0
    9.5340   -2.1993   18.9863 C   0  0  0  0  0  0
    7.5909   -1.0707   24.4446 C   0  0  0  0  0  0
    5.5882   -1.7413   26.2783 C   0  0  0  0  0  0
    6.3435   -0.4554   24.3810 C   0  0  0  0  0  0
    3.8398    0.0478   25.2651 Cl  0  0  0  0  0  0
    5.3668   -0.7914   25.3020 C   0  0  0  0  0  0
    6.8390   -2.3334   26.3580 C   0  0  0  0  0  0
    7.8344   -1.9904   25.4564 C   0  0  0  0  0  0
    8.6101   -0.8836   23.3248 C   0  0  2  0  0  0
    9.1673    0.4924   23.2159 N   0  0  0  0  0  0
    9.1215    1.2745   24.4547 C   0  0  0  0  0  0
   10.5404    0.4711   22.7155 C   0  0  0  0  0  0
    8.1553   -1.5303   22.0030 C   0  0  0  0  0  0
    7.4620   -2.5403   22.0178 O   0  0  0  0  0  0
   10.8832   -2.2809   19.6542 C   0  0  0  0  0  0
    7.0286   -2.0892   17.7179 N   0  0  0  0  0  0
    9.0368   -0.0484   20.9837 H   0  0  0  0  0  0
    6.4095   -0.9057   19.2821 H   0  0  0  0  0  0
    7.8723   -3.2572   16.2425 H   0  0  0  0  0  0
   10.0991   -3.3823   17.2825 H   0  0  0  0  0  0
    4.7951   -2.0095   26.9606 H   0  0  0  0  0  0
    6.1423    0.2797   23.6158 H   0  0  0  0  0  0
    7.0418   -3.0660   27.1252 H   0  0  0  0  0  0
    8.8086   -2.4475   25.5477 H   0  0  0  0  0  0
    9.4606   -1.4896   23.6370 H   0  0  0  0  0  0
    9.5488    2.2616   24.2778 H   0  0  0  0  0  0
    8.0867    1.3801   24.7803 H   0  0  0  0  0  0
    9.6951    0.7643   25.2285 H   0  0  0  0  0  0
   10.9187    1.4911   22.6474 H   0  0  0  0  0  0
   11.1672   -0.1036   23.3974 H   0  0  0  0  0  0
   10.5607    0.0099   21.7281 H   0  0  0  0  0  0
   11.5609   -2.8683   19.0348 H   0  0  0  0  0  0
   11.2872   -1.2766   19.7821 H   0  0  0  0  0  0
   10.7784   -2.7567   20.6292 H   0  0  0  0  0  0
  1  2  1  0  0  0
  1 18  1  0  0  0
  1 22  1  0  0  0
  2  3  1  0  0  0
  2  6  2  0  0  0
  3 21  2  0  0  0
  3 23  1  0  0  0
  4  5  2  0  0  0
  4 21  1  0  0  0
  4 24  1  0  0  0
  5  6  1  0  0  0
  5 25  1  0  0  0
  6 20  1  0  0  0
  7  9  1  0  0  0
  7 13  2  0  0  0
  7 14  1  0  0  0
  8 11  1  0  0  0
  8 12  2  0  0  0
  8 26  1  0  0  0
  9 11  2  0  0  0
  9 27  1  0  0  0
 10 11  1  0  0  0
 12 13  1  0  0  0
 12 28  1  0  0  0
 13 29  1  0  0  0
 14 15  1  0  0  0
 14 18  1  0  0  0
 14 30  1  0  0  0
 15 16  1  0  0  0
 15 17  1  0  0  0
 16 31  1  0  0  0
 16 32  1  0  0  0
 16 33  1  0  0  0
 17 34  1  0  0  0
 17 35  1  0  0  0
 17 36  1  0  0  0
 18 19  2  0  0  0
 20 37  1  0  0  0
 20 38  1  0  0  0
 20 39  1  0  0  0
M  END
> <s_m_entry_id>
165

> <s_m_entry_name>
7gbp.pdb.1_ligand

> <s_pdb_PDB_TITLE>
GROUP DEPOSITION SARS-COV-2 MAIN PROTEASE IN COMPLEX WITH INHIBITORS FROM THE COVID MOONSHOT -- CRYSTAL STRUCTURE OF SARS-COV-2 MAIN PROTEASE IN COMPLEX WITH JAN-GHE-83B26C96-10 (MPRO-X10395)

> <s_pdb_PDB_ID>
7GBP

> <s_m_Source_File>
7gbp.pdb.gz

> <s_user_Compound_ID>
JAN-GHE-83b26c96-10

> <s_user_Monomer-Dimer>
Monomer

> <s_user_xcode>
Mpro-x10395

$$$$
