7GBQ_ligand
                    3D
 Schrodinger Suite 2021-2.
 31 32  0  0  1  0            999 V2000
    8.6415   -0.9798   20.6231 N   0  0  0  0  0  0
    7.2530   -1.5300   18.6862 C   0  0  0  0  0  0
    8.4594   -1.6230   19.3759 C   0  0  0  0  0  0
    8.1590   -1.4203   21.8034 C   0  0  0  0  0  0
    8.5968   -0.5976   23.0357 C   0  0  0  0  0  0
    7.6754   -0.7932   24.2112 C   0  0  0  0  0  0
    7.0951   -1.9319   26.2569 C   0  0  0  0  0  0
    6.4510   -0.1373   24.2430 C   0  0  0  0  0  0
    8.6288    0.7197   22.6923 F   0  0  0  0  0  0
    7.9989   -1.6729   25.2378 C   0  0  0  0  0  0
    7.0090   -2.1786   17.5418 N   0  0  0  0  0  0
    5.5605   -0.4115   25.2588 C   0  0  0  0  0  0
    9.4817   -2.4271   18.8465 C   0  0  0  0  0  0
    5.8549   -1.3120   26.2634 C   0  0  0  0  0  0
   10.7992   -2.6165   19.5556 C   0  0  0  0  0  0
    9.2218   -3.0879   17.6505 C   0  0  0  0  0  0
    7.4443   -2.4018   21.9447 O   0  0  0  0  0  0
    7.9921   -2.9379   17.0429 C   0  0  0  0  0  0
    9.8833   -0.9276   23.3469 F   0  0  0  0  0  0
    4.0308    0.4185   25.2788 Cl  0  0  0  0  0  0
    9.1690   -0.1200   20.6756 H   0  0  0  0  0  0
    6.4569   -0.9103   19.0718 H   0  0  0  0  0  0
    7.3562   -2.6184   27.0488 H   0  0  0  0  0  0
    6.2032    0.5812   23.4756 H   0  0  0  0  0  0
    8.9619   -2.1619   25.2466 H   0  0  0  0  0  0
    5.1427   -1.5372   27.0435 H   0  0  0  0  0  0
   11.4376   -3.2755   18.9672 H   0  0  0  0  0  0
   11.2891   -1.6504   19.6773 H   0  0  0  0  0  0
   10.6244   -3.0606   20.5355 H   0  0  0  0  0  0
    9.9802   -3.7135   17.2033 H   0  0  0  0  0  0
    7.8438   -3.4735   16.1168 H   0  0  0  0  0  0
  1  3  1  0  0  0
  1  4  1  0  0  0
  1 21  1  0  0  0
  2  3  1  0  0  0
  2 11  2  0  0  0
  2 22  1  0  0  0
  3 13  2  0  0  0
  4  5  1  0  0  0
  4 17  2  0  0  0
  5  6  1  0  0  0
  5  9  1  0  0  0
  5 19  1  0  0  0
  6  8  1  0  0  0
  6 10  2  0  0  0
  7 10  1  0  0  0
  7 14  2  0  0  0
  7 23  1  0  0  0
  8 12  2  0  0  0
  8 24  1  0  0  0
 10 25  1  0  0  0
 11 18  1  0  0  0
 12 14  1  0  0  0
 12 20  1  0  0  0
 13 15  1  0  0  0
 13 16  1  0  0  0
 14 26  1  0  0  0
 15 27  1  0  0  0
 15 28  1  0  0  0
 15 29  1  0  0  0
 16 18  2  0  0  0
 16 30  1  0  0  0
 18 31  1  0  0  0
M  END
> <s_m_entry_id>
167

> <s_m_entry_name>
7gbq.pdb.1_ligand

> <s_pdb_PDB_TITLE>
GROUP DEPOSITION SARS-COV-2 MAIN PROTEASE IN COMPLEX WITH INHIBITORS FROM THE COVID MOONSHOT -- CRYSTAL STRUCTURE OF SARS-COV-2 MAIN PROTEASE IN COMPLEX WITH JAN-GHE-83B26C96-23 (MPRO-X10396)

> <s_pdb_PDB_ID>
7GBQ

> <s_m_Source_File>
7gbq.pdb.gz

> <s_user_Compound_ID>
JAN-GHE-83b26c96-23

> <s_user_Monomer-Dimer>
Monomer

> <s_user_xcode>
Mpro-x10396

$$$$
