7GBR_ligand
                    3D
 Schrodinger Suite 2021-2.
 40 42  0  0  1  0            999 V2000
    8.4755   -0.2062   23.9814 N   0  0  0  0  0  0
    7.7318   -1.7161   25.6962 C   0  0  0  0  0  0
    6.7107   -2.2311   26.4840 C   0  0  0  0  0  0
    5.4294   -1.7191   26.3920 C   0  0  0  0  0  0
    5.1651   -0.6779   25.5192 C   0  0  0  0  0  0
    6.1759   -0.1548   24.7263 C   0  0  0  0  0  0
    8.0179   -1.3926   18.2944 C   0  0  0  0  0  0
   11.0716   -3.9872   17.0999 C   0  0  0  0  0  0
   12.6134   -2.9052   18.5960 C   0  0  0  0  0  0
   10.3335   -2.1299   18.4789 C   0  0  0  0  0  0
    9.1239   -0.1643   20.9938 N   0  0  0  0  0  0
    8.7706   -3.2405   17.0018 N   0  0  0  0  0  0
    9.3804    0.8798   21.9775 C   0  0  0  0  0  0
    7.7160   -2.4438   17.3703 C   0  0  0  0  0  0
    6.5728   -2.7094   16.9851 O   0  0  0  0  0  0
    8.3103    0.8974   23.0486 C   0  0  0  0  0  0
   11.6175   -2.0417   19.0263 C   0  0  0  0  0  0
    9.2542   -1.2209   18.8385 C   0  0  0  0  0  0
   10.0588   -3.1266   17.5201 C   0  0  0  0  0  0
   12.3434   -3.8639   17.6370 C   0  0  0  0  0  0
    9.5065   -0.0454   19.7221 C   0  0  0  0  0  0
   10.0797    0.9613   19.3036 O   0  0  0  0  0  0
    7.4649   -0.6831   24.8008 C   0  0  0  0  0  0
    9.3919   -0.6297   24.0111 H   0  0  0  0  0  0
    8.7315   -2.1166   25.7783 H   0  0  0  0  0  0
    6.9147   -3.0366   27.1739 H   0  0  0  0  0  0
    4.6380   -2.1316   27.0003 H   0  0  0  0  0  0
    4.1679   -0.2687   25.4530 H   0  0  0  0  0  0
    5.9650    0.6614   24.0513 H   0  0  0  0  0  0
    7.2485   -0.6937   18.5875 H   0  0  0  0  0  0
   10.8634   -4.7453   16.3594 H   0  0  0  0  0  0
   13.6081   -2.8316   19.0103 H   0  0  0  0  0  0
    8.6408   -0.9967   21.3002 H   0  0  0  0  0  0
    8.6383   -3.9665   16.3123 H   0  0  0  0  0  0
    9.4106    1.8486   21.4789 H   0  0  0  0  0  0
   10.3534    0.7120   22.4394 H   0  0  0  0  0  0
    8.3561    1.8414   23.5917 H   0  0  0  0  0  0
    7.3278    0.8332   22.5810 H   0  0  0  0  0  0
   11.8338   -1.3023   19.7831 H   0  0  0  0  0  0
   13.1350   -4.5204   17.3069 H   0  0  0  0  0  0
  1 16  1  0  0  0
  1 23  1  0  0  0
  1 24  1  0  0  0
  2  3  1  0  0  0
  2 23  2  0  0  0
  2 25  1  0  0  0
  3  4  2  0  0  0
  3 26  1  0  0  0
  4  5  1  0  0  0
  4 27  1  0  0  0
  5  6  2  0  0  0
  5 28  1  0  0  0
  6 23  1  0  0  0
  6 29  1  0  0  0
  7 14  1  0  0  0
  7 18  2  0  0  0
  7 30  1  0  0  0
  8 19  1  0  0  0
  8 20  2  0  0  0
  8 31  1  0  0  0
  9 17  2  0  0  0
  9 20  1  0  0  0
  9 32  1  0  0  0
 10 17  1  0  0  0
 10 18  1  0  0  0
 10 19  2  0  0  0
 11 13  1  0  0  0
 11 21  1  0  0  0
 11 33  1  0  0  0
 12 14  1  0  0  0
 12 19  1  0  0  0
 12 34  1  0  0  0
 13 16  1  0  0  0
 13 35  1  0  0  0
 13 36  1  0  0  0
 14 15  2  0  0  0
 16 37  1  0  0  0
 16 38  1  0  0  0
 17 39  1  0  0  0
 18 21  1  0  0  0
 20 40  1  0  0  0
 21 22  2  0  0  0
M  END
> <s_m_entry_id>
169

> <s_m_entry_name>
7gbr.pdb.1_ligand

> <s_pdb_PDB_TITLE>
GROUP DEPOSITION SARS-COV-2 MAIN PROTEASE IN COMPLEX WITH INHIBITORS FROM THE COVID MOONSHOT -- CRYSTAL STRUCTURE OF SARS-COV-2 MAIN PROTEASE IN COMPLEX WITH BEN-DND-7E92B6CA-4 (MPRO-X10403)

> <s_pdb_PDB_ID>
7GBR

> <s_m_Source_File>
7gbr.pdb.gz

> <s_user_Compound_ID>
BEN-DND-7e92b6ca-4

> <s_user_Monomer-Dimer>
Monomer

> <s_user_xcode>
Mpro-x10403

$$$$
