7GBS_ligand
                    3D
 Schrodinger Suite 2021-2.
 31 32  0  0  1  0            999 V2000
    8.6081   -0.9745   20.7554 N   0  0  0  0  0  0
    7.1886   -1.5002   18.8387 C   0  0  0  0  0  0
    8.4026   -1.6134   19.5137 C   0  0  0  0  0  0
    7.9958   -1.3015   21.9051 C   0  0  0  0  0  0
    8.3712   -0.4194   23.0793 C   0  0  0  0  0  0
    7.4514   -0.6630   24.2527 C   0  0  0  0  0  0
    6.9472   -1.8016   26.3192 C   0  0  0  0  0  0
    6.1929   -0.0716   24.2903 C   0  0  0  0  0  0
    7.8211   -1.5233   25.2794 C   0  0  0  0  0  0
    4.1154    0.2116   25.3498 F   0  0  0  0  0  0
    6.9477   -2.0960   17.6658 N   0  0  0  0  0  0
    5.3462   -0.3793   25.3255 C   0  0  0  0  0  0
    9.4321   -2.3838   18.9459 C   0  0  0  0  0  0
    5.6821   -1.2383   26.3406 C   0  0  0  0  0  0
   10.7309   -2.6389   19.6671 C   0  0  0  0  0  0
    9.1783   -2.9750   17.7155 C   0  0  0  0  0  0
    7.2230   -2.2514   22.0213 O   0  0  0  0  0  0
    7.9431   -2.8088   17.1192 C   0  0  0  0  0  0
    9.2596   -0.2060   20.8261 H   0  0  0  0  0  0
    6.3890   -0.9097   19.2611 H   0  0  0  0  0  0
    8.3097    0.6272   22.7811 H   0  0  0  0  0  0
    9.3995   -0.6271   23.3750 H   0  0  0  0  0  0
    7.2515   -2.4611   27.1185 H   0  0  0  0  0  0
    5.8964    0.6170   23.5129 H   0  0  0  0  0  0
    8.7982   -1.9832   25.2731 H   0  0  0  0  0  0
    4.9967   -1.4801   27.1395 H   0  0  0  0  0  0
   11.3781   -3.2560   19.0438 H   0  0  0  0  0  0
   11.2246   -1.6894   19.8742 H   0  0  0  0  0  0
   10.5305   -3.1559   20.6055 H   0  0  0  0  0  0
    9.9445   -3.5610   17.2296 H   0  0  0  0  0  0
    7.8008   -3.2900   16.1628 H   0  0  0  0  0  0
  1  3  1  0  0  0
  1  4  1  0  0  0
  1 19  1  0  0  0
  2  3  1  0  0  0
  2 11  2  0  0  0
  2 20  1  0  0  0
  3 13  2  0  0  0
  4  5  1  0  0  0
  4 17  2  0  0  0
  5  6  1  0  0  0
  5 21  1  0  0  0
  5 22  1  0  0  0
  6  8  1  0  0  0
  6  9  2  0  0  0
  7  9  1  0  0  0
  7 14  2  0  0  0
  7 23  1  0  0  0
  8 12  2  0  0  0
  8 24  1  0  0  0
  9 25  1  0  0  0
 10 12  1  0  0  0
 11 18  1  0  0  0
 12 14  1  0  0  0
 13 15  1  0  0  0
 13 16  1  0  0  0
 14 26  1  0  0  0
 15 27  1  0  0  0
 15 28  1  0  0  0
 15 29  1  0  0  0
 16 18  2  0  0  0
 16 30  1  0  0  0
 18 31  1  0  0  0
M  END
> <s_m_entry_id>
171

> <s_m_entry_name>
7gbs.pdb.1_ligand

> <s_pdb_PDB_TITLE>
GROUP DEPOSITION SARS-COV-2 MAIN PROTEASE IN COMPLEX WITH INHIBITORS FROM THE COVID MOONSHOT -- CRYSTAL STRUCTURE OF SARS-COV-2 MAIN PROTEASE IN COMPLEX WITH ALP-POS-95B75B4D-1 (MPRO-X10417)

> <s_pdb_PDB_ID>
7GBS

> <s_m_Source_File>
7gbs.pdb.gz

> <s_user_Compound_ID>
ALP-POS-95b75b4d-1

> <s_user_Monomer-Dimer>
Monomer

> <s_user_xcode>
Mpro-x10417

$$$$
