7GBT_ligand
                    3D
 Schrodinger Suite 2021-2.
 46 48  0  0  1  0            999 V2000
    8.5993   -3.1912   17.4028 N   0  0  0  0  0  0
    5.0054   -0.4402   25.6635 C   0  0  0  0  0  0
    5.9664    0.1017   24.8286 C   0  0  0  0  0  0
    7.1097   -0.6248   24.5451 C   0  0  0  0  0  0
    7.8680   -0.2674   22.3077 C   0  0  0  0  0  0
    9.2142   -0.5128   21.6850 C   0  0  0  0  0  0
    9.5028    0.4377   19.4012 C   0  0  0  0  0  0
    7.5752   -2.3105   17.6431 C   0  0  0  0  0  0
   10.8890   -3.9571   17.5389 C   0  0  0  0  0  0
   12.5020   -2.6686   18.7664 C   0  0  0  0  0  0
    6.4255   -2.6029   17.3297 O   0  0  0  0  0  0
    7.9264   -1.1234   18.3484 C   0  0  0  0  0  0
    9.9020   -3.0211   17.8492 C   0  0  0  0  0  0
   10.2301   -1.8802   18.6006 C   0  0  0  0  0  0
   11.5355   -1.7308   19.0790 C   0  0  0  0  0  0
   12.1847   -3.7639   17.9920 C   0  0  0  0  0  0
    9.1800   -0.8895   18.8131 C   0  0  0  0  0  0
    9.6880    1.3986   18.6709 O   0  0  0  0  0  0
    9.5802    0.5742   20.7777 N   0  0  0  0  0  0
    9.9456    1.8402   21.3967 C   0  0  0  0  0  0
    8.1034   -0.1843   23.7189 O   0  0  0  0  0  0
    7.2923   -1.9029   25.1100 C   0  0  0  0  0  0
    8.4177   -2.5666   24.6990 O   0  0  0  0  0  0
    8.7623   -3.7815   25.3617 C   0  0  0  0  0  0
    5.1911   -1.6832   26.2351 C   0  0  0  0  0  0
    6.3347   -2.4175   25.9722 C   0  0  0  0  0  0
    8.4284   -4.0307   16.8679 H   0  0  0  0  0  0
    4.1000    0.1100   25.8732 H   0  0  0  0  0  0
    5.8212    1.0840   24.4039 H   0  0  0  0  0  0
    7.2132   -1.1135   22.0992 H   0  0  0  0  0  0
    7.4719    0.6832   21.9503 H   0  0  0  0  0  0
    9.1934   -1.4534   21.1346 H   0  0  0  0  0  0
    9.9663   -0.5997   22.4692 H   0  0  0  0  0  0
   10.6418   -4.8270   16.9485 H   0  0  0  0  0  0
   13.5117   -2.5451   19.1294 H   0  0  0  0  0  0
    7.1808   -0.3641   18.5326 H   0  0  0  0  0  0
   11.7878   -0.8799   19.6944 H   0  0  0  0  0  0
   12.9570   -4.4752   17.7389 H   0  0  0  0  0  0
   10.1959    2.5651   20.6221 H   0  0  0  0  0  0
    9.1072    2.2129   21.9852 H   0  0  0  0  0  0
   10.8078    1.6918   22.0469 H   0  0  0  0  0  0
    9.6749   -4.1877   24.9254 H   0  0  0  0  0  0
    8.9232   -3.5848   26.4216 H   0  0  0  0  0  0
    7.9526   -4.5018   25.2451 H   0  0  0  0  0  0
    4.4400   -2.0919   26.8949 H   0  0  0  0  0  0
    6.4850   -3.3832   26.4319 H   0  0  0  0  0  0
  1  8  1  0  0  0
  1 13  1  0  0  0
  1 27  1  0  0  0
  2  3  1  0  0  0
  2 25  2  0  0  0
  2 28  1  0  0  0
  3  4  2  0  0  0
  3 29  1  0  0  0
  4 21  1  0  0  0
  4 22  1  0  0  0
  5  6  1  0  0  0
  5 21  1  0  0  0
  5 30  1  0  0  0
  5 31  1  0  0  0
  6 19  1  0  0  0
  6 32  1  0  0  0
  6 33  1  0  0  0
  7 17  1  0  0  0
  7 18  2  0  0  0
  7 19  1  0  0  0
  8 11  2  0  0  0
  8 12  1  0  0  0
  9 13  1  0  0  0
  9 16  2  0  0  0
  9 34  1  0  0  0
 10 15  2  0  0  0
 10 16  1  0  0  0
 10 35  1  0  0  0
 12 17  2  0  0  0
 12 36  1  0  0  0
 13 14  2  0  0  0
 14 15  1  0  0  0
 14 17  1  0  0  0
 15 37  1  0  0  0
 16 38  1  0  0  0
 19 20  1  0  0  0
 20 39  1  0  0  0
 20 40  1  0  0  0
 20 41  1  0  0  0
 22 23  1  0  0  0
 22 26  2  0  0  0
 23 24  1  0  0  0
 24 42  1  0  0  0
 24 43  1  0  0  0
 24 44  1  0  0  0
 25 26  1  0  0  0
 25 45  1  0  0  0
 26 46  1  0  0  0
M  END
> <s_m_entry_id>
173

> <s_m_entry_name>
7gbt.pdb.1_ligand

> <s_pdb_PDB_TITLE>
GROUP DEPOSITION SARS-COV-2 MAIN PROTEASE IN COMPLEX WITH INHIBITORS FROM THE COVID MOONSHOT -- CRYSTAL STRUCTURE OF SARS-COV-2 MAIN PROTEASE IN COMPLEX WITH BEN-DND-7E92B6CA-2 (MPRO-X10419)

> <s_pdb_PDB_ID>
7GBT

> <s_m_Source_File>
7gbt.pdb.gz

> <s_user_Compound_ID>
BEN-DND-7e92b6ca-2

> <s_user_Monomer-Dimer>
Monomer

> <s_user_xcode>
Mpro-x10419

$$$$
