7GBU_ligand
                    3D
 Schrodinger Suite 2021-2.
 40 41  0  0  1  0            999 V2000
    8.9557   -1.0703   21.0762 N   0  0  0  0  0  0
    8.7403    0.1708   21.5505 C   0  0  0  0  0  0
    8.4212   -1.6724   19.9135 C   0  0  0  0  0  0
    9.2701   -2.5655   19.2714 C   0  0  0  0  0  0
    8.9388   -3.0369   18.0173 C   0  0  0  0  0  0
    7.7533   -2.6166   17.4469 C   0  0  0  0  0  0
    8.1873   -0.2039   23.9653 C   0  0  0  0  0  0
    6.3143   -1.4463   25.6225 C   0  0  0  0  0  0
    6.8403    0.1307   23.8908 C   0  0  0  0  0  0
    8.3387    1.0918   20.8481 O   0  0  0  0  0  0
    9.1978    0.3928   22.9921 C   0  0  2  0  0  0
    5.9088   -0.4886   24.7124 C   0  0  0  0  0  0
    7.6548   -1.7655   25.7286 C   0  0  0  0  0  0
    8.5855   -1.1482   24.9049 C   0  0  0  0  0  0
    9.4196    1.8934   23.2349 C   0  0  0  0  0  0
   10.1300    2.2179   24.5334 C   0  0  0  0  0  0
   10.3886    3.6544   24.6296 N   0  3  0  0  0  0
   10.4302    4.0836   26.0264 C   0  0  0  0  0  0
    7.2474   -1.3053   19.2506 C   0  0  0  0  0  0
    6.9058   -1.7700   18.0443 N   0  0  0  0  0  0
    9.5697   -1.7008   21.5717 H   0  0  0  0  0  0
   10.1816   -2.8860   19.7538 H   0  0  0  0  0  0
    9.6009   -3.7188   17.5044 H   0  0  0  0  0  0
    7.4687   -2.9732   16.4680 H   0  0  0  0  0  0
    5.5849   -1.9413   26.2466 H   0  0  0  0  0  0
    6.5082    0.8803   23.1879 H   0  0  0  0  0  0
   10.1496   -0.1199   23.1310 H   0  0  0  0  0  0
    4.8651   -0.2207   24.6393 H   0  0  0  0  0  0
    7.9800   -2.4968   26.4537 H   0  0  0  0  0  0
    9.6293   -1.4086   24.9998 H   0  0  0  0  0  0
    8.4596    2.4090   23.2098 H   0  0  0  0  0  0
    9.9808    2.3150   22.4011 H   0  0  0  0  0  0
   11.0744    1.6754   24.5759 H   0  0  0  0  0  0
    9.5114    1.9033   25.3740 H   0  0  0  0  0  0
    9.6618    4.1602   24.1438 H   0  0  0  0  0  0
   11.2704    3.8677   24.1858 H   0  0  0  0  0  0
   10.6238    5.1553   26.0721 H   0  0  0  0  0  0
    9.4737    3.8672   26.5022 H   0  0  0  0  0  0
   11.2241    3.5490   26.5479 H   0  0  0  0  0  0
    6.5608   -0.6113   19.7125 H   0  0  0  0  0  0
  1  2  1  0  0  0
  1  3  1  0  0  0
  1 21  1  0  0  0
  2 10  2  0  0  0
  2 11  1  0  0  0
  3  4  1  0  0  0
  3 19  2  0  0  0
  4  5  2  0  0  0
  4 22  1  0  0  0
  5  6  1  0  0  0
  5 23  1  0  0  0
  6 20  2  0  0  0
  6 24  1  0  0  0
  7  9  1  0  0  0
  7 11  1  0  0  0
  7 14  2  0  0  0
  8 12  1  0  0  0
  8 13  2  0  0  0
  8 25  1  0  0  0
  9 12  2  0  0  0
  9 26  1  0  0  0
 11 15  1  0  0  0
 11 27  1  0  0  0
 12 28  1  0  0  0
 13 14  1  0  0  0
 13 29  1  0  0  0
 14 30  1  0  0  0
 15 16  1  0  0  0
 15 31  1  0  0  0
 15 32  1  0  0  0
 16 17  1  0  0  0
 16 33  1  0  0  0
 16 34  1  0  0  0
 17 18  1  0  0  0
 17 35  1  0  0  0
 17 36  1  0  0  0
 18 37  1  0  0  0
 18 38  1  0  0  0
 18 39  1  0  0  0
 19 20  1  0  0  0
 19 40  1  0  0  0
M  CHG  1  17   1
M  END
> <s_m_entry_id>
175

> <s_m_entry_name>
7gbu.pdb.1_ligand

> <s_pdb_PDB_TITLE>
GROUP DEPOSITION SARS-COV-2 MAIN PROTEASE IN COMPLEX WITH INHIBITORS FROM THE COVID MOONSHOT -- CRYSTAL STRUCTURE OF SARS-COV-2 MAIN PROTEASE IN COMPLEX WITH ADA-UNI-F8E79267-5 (MPRO-X10421)

> <s_pdb_PDB_ID>
7GBU

> <s_m_Source_File>
7gbu.pdb.gz

> <s_user_Compound_ID>
ADA-UNI-f8e79267-5

> <s_user_Monomer-Dimer>
Monomer

> <s_user_xcode>
Mpro-x10421

$$$$
