7GBV_ligand
                    3D
 Schrodinger Suite 2021-2.
 37 38  0  0  1  0            999 V2000
    8.5406   -0.9726   20.9405 N   0  0  0  0  0  0
    7.1197   -1.4465   18.9971 C   0  0  0  0  0  0
    8.3515   -1.5104   19.6470 C   0  0  0  0  0  0
    8.0901   -1.5554   22.0755 C   0  0  0  0  0  0
    8.5187   -0.9011   23.4058 C   0  0  0  0  0  0
    9.8633   -1.5388   23.8037 C   0  0  0  0  0  0
    7.4202   -1.1418   24.4537 C   0  0  0  0  0  0
    5.3392   -1.6768   26.2438 C   0  0  0  0  0  0
    6.1979   -0.4851   24.3294 C   0  0  0  0  0  0
    3.7212    0.1866   25.1466 Cl  0  0  0  0  0  0
    5.1891   -0.7468   25.2325 C   0  0  0  0  0  0
    6.5598   -2.3194   26.3792 C   0  0  0  0  0  0
    7.5950   -2.0456   25.4994 C   0  0  0  0  0  0
    8.7462    0.6135   23.2510 C   0  0  0  0  0  0
    7.4124   -2.5713   22.0749 O   0  0  0  0  0  0
    9.4037   -2.2087   19.0276 C   0  0  0  0  0  0
   10.7433   -2.3927   19.6944 C   0  0  0  0  0  0
    6.8688   -2.0429   17.8277 N   0  0  0  0  0  0
    7.8779   -2.6992   17.2474 C   0  0  0  0  0  0
    9.1415   -2.7948   17.7933 C   0  0  0  0  0  0
    9.0384   -0.1016   21.0575 H   0  0  0  0  0  0
    6.3044   -0.8924   19.4383 H   0  0  0  0  0  0
   10.2076   -1.1056   24.7428 H   0  0  0  0  0  0
    9.7339   -2.6141   23.9261 H   0  0  0  0  0  0
   10.6010   -1.3485   23.0242 H   0  0  0  0  0  0
    4.5149   -1.8895   26.9084 H   0  0  0  0  0  0
    6.0449    0.2242   23.5295 H   0  0  0  0  0  0
    6.7073   -3.0368   27.1728 H   0  0  0  0  0  0
    8.5453   -2.5416   25.6313 H   0  0  0  0  0  0
    9.0465    1.0362   24.2098 H   0  0  0  0  0  0
    9.5304    0.7903   22.5149 H   0  0  0  0  0  0
    7.8229    1.0880   22.9186 H   0  0  0  0  0  0
   11.4020   -2.9605   19.0371 H   0  0  0  0  0  0
   11.1858   -1.4174   19.8971 H   0  0  0  0  0  0
   10.6120   -2.9335   20.6316 H   0  0  0  0  0  0
    7.7267   -3.1921   16.2984 H   0  0  0  0  0  0
    9.9248   -3.3209   17.2680 H   0  0  0  0  0  0
  1  3  1  0  0  0
  1  4  1  0  0  0
  1 21  1  0  0  0
  2  3  1  0  0  0
  2 18  2  0  0  0
  2 22  1  0  0  0
  3 16  2  0  0  0
  4  5  1  0  0  0
  4 15  2  0  0  0
  5  6  1  0  0  0
  5  7  1  0  0  0
  5 14  1  0  0  0
  6 23  1  0  0  0
  6 24  1  0  0  0
  6 25  1  0  0  0
  7  9  1  0  0  0
  7 13  2  0  0  0
  8 11  1  0  0  0
  8 12  2  0  0  0
  8 26  1  0  0  0
  9 11  2  0  0  0
  9 27  1  0  0  0
 10 11  1  0  0  0
 12 13  1  0  0  0
 12 28  1  0  0  0
 13 29  1  0  0  0
 14 30  1  0  0  0
 14 31  1  0  0  0
 14 32  1  0  0  0
 16 17  1  0  0  0
 16 20  1  0  0  0
 17 33  1  0  0  0
 17 34  1  0  0  0
 17 35  1  0  0  0
 18 19  1  0  0  0
 19 20  2  0  0  0
 19 36  1  0  0  0
 20 37  1  0  0  0
M  END
> <s_m_entry_id>
177

> <s_m_entry_name>
7gbv.pdb.1_ligand

> <s_pdb_PDB_TITLE>
GROUP DEPOSITION SARS-COV-2 MAIN PROTEASE IN COMPLEX WITH INHIBITORS FROM THE COVID MOONSHOT -- CRYSTAL STRUCTURE OF SARS-COV-2 MAIN PROTEASE IN COMPLEX WITH JAN-GHE-83B26C96-22 (MPRO-X10422)

> <s_pdb_PDB_ID>
7GBV

> <s_m_Source_File>
7gbv.pdb.gz

> <s_user_Compound_ID>
JAN-GHE-83b26c96-22

> <s_user_Monomer-Dimer>
Monomer

> <s_user_xcode>
Mpro-x10422

$$$$
