7GBW_ligand
                    3D
 Schrodinger Suite 2021-2.
 40 41  0  0  1  0            999 V2000
    7.0717   -2.1592   17.4744 N   0  0  0  0  0  0
    8.2206   -1.4345   21.7501 C   0  0  0  0  0  0
    8.4880   -1.5704   19.3257 C   0  0  0  0  0  0
    7.2813   -1.5228   18.6311 C   0  0  0  0  0  0
    8.0858   -2.8718   16.9732 C   0  0  0  0  0  0
    9.3189   -2.9754   17.5831 C   0  0  0  0  0  0
   10.8438   -2.5229   19.5335 C   0  0  0  0  0  0
    6.7424   -2.4334   25.7711 C   0  0  0  0  0  0
    5.4761   -0.5170   25.1579 C   0  0  0  0  0  0
    4.0482    0.4650   25.3287 Cl  0  0  0  0  0  0
    5.5960   -1.6667   25.9106 C   0  0  0  0  0  0
    7.7321   -2.0570   24.8758 C   0  0  0  0  0  0
    6.4517   -0.1295   24.2595 C   0  0  0  0  0  0
    7.5854   -0.9173   24.0932 C   0  0  0  0  0  0
    8.5710   -0.5949   22.9791 C   0  0  1  0  0  0
   10.0160   -0.8895   23.4104 C   0  0  0  0  0  0
   10.5888    0.1253   24.3741 C   0  0  0  0  0  0
   11.7440   -0.4292   25.1421 C   0  0  0  0  0  0
    7.6492   -2.5138   21.8434 O   0  0  0  0  0  0
    8.6431   -0.9206   20.5736 N   0  0  0  0  0  0
    9.5437   -2.3307   18.7935 C   0  0  0  0  0  0
    6.4921   -0.9334   19.0739 H   0  0  0  0  0  0
    7.9626   -3.4056   16.0425 H   0  0  0  0  0  0
   10.1034   -3.5553   17.1197 H   0  0  0  0  0  0
   11.5134   -3.1430   18.9376 H   0  0  0  0  0  0
   11.3087   -1.5530   19.7103 H   0  0  0  0  0  0
   10.6502   -3.0119   20.4883 H   0  0  0  0  0  0
    6.8683   -3.3289   26.3615 H   0  0  0  0  0  0
    4.8211   -1.9740   26.5972 H   0  0  0  0  0  0
    8.6287   -2.6514   24.7808 H   0  0  0  0  0  0
    6.3315    0.7808   23.6910 H   0  0  0  0  0  0
    8.4851    0.4613   22.7238 H   0  0  0  0  0  0
   10.6519   -0.9482   22.5270 H   0  0  0  0  0  0
   10.0640   -1.8816   23.8594 H   0  0  0  0  0  0
    9.8117    0.4450   25.0683 H   0  0  0  0  0  0
   10.9107    1.0083   23.8220 H   0  0  0  0  0  0
   12.1267    0.3310   25.8231 H   0  0  0  0  0  0
   11.4173   -1.2975   25.7143 H   0  0  0  0  0  0
   12.5320   -0.7262   24.4501 H   0  0  0  0  0  0
    9.1008   -0.0205   20.5510 H   0  0  0  0  0  0
  1  4  1  0  0  0
  1  5  2  0  0  0
  2 15  1  0  0  0
  2 19  2  0  0  0
  2 20  1  0  0  0
  3  4  2  0  0  0
  3 20  1  0  0  0
  3 21  1  0  0  0
  4 22  1  0  0  0
  5  6  1  0  0  0
  5 23  1  0  0  0
  6 21  2  0  0  0
  6 24  1  0  0  0
  7 21  1  0  0  0
  7 25  1  0  0  0
  7 26  1  0  0  0
  7 27  1  0  0  0
  8 11  1  0  0  0
  8 12  2  0  0  0
  8 28  1  0  0  0
  9 10  1  0  0  0
  9 11  2  0  0  0
  9 13  1  0  0  0
 11 29  1  0  0  0
 12 14  1  0  0  0
 12 30  1  0  0  0
 13 14  2  0  0  0
 13 31  1  0  0  0
 14 15  1  0  0  0
 15 16  1  0  0  0
 15 32  1  0  0  0
 16 17  1  0  0  0
 16 33  1  0  0  0
 16 34  1  0  0  0
 17 18  1  0  0  0
 17 35  1  0  0  0
 17 36  1  0  0  0
 18 37  1  0  0  0
 18 38  1  0  0  0
 18 39  1  0  0  0
 20 40  1  0  0  0
M  END
> <s_m_entry_id>
179

> <s_m_entry_name>
7gbw.pdb.1_ligand

> <s_pdb_PDB_TITLE>
GROUP DEPOSITION SARS-COV-2 MAIN PROTEASE IN COMPLEX WITH INHIBITORS FROM THE COVID MOONSHOT -- CRYSTAL STRUCTURE OF SARS-COV-2 MAIN PROTEASE IN COMPLEX WITH JAN-GHE-83B26C96-8 (MPRO-X10423)

> <s_pdb_PDB_ID>
7GBW

> <s_m_Source_File>
7gbw.pdb.gz

> <s_user_Compound_ID>
JAN-GHE-83b26c96-8

> <s_user_Monomer-Dimer>
Monomer

> <s_user_xcode>
Mpro-x10423

$$$$
