7GBX_ligand
                    3D
 Schrodinger Suite 2021-2.
 32 34  0  0  1  0            999 V2000
    7.9814   -1.1923   19.5038 N   0  0  0  0  0  0
    7.7193   -0.7973   24.2641 C   0  0  0  0  0  0
    8.6636   -0.6293   23.0973 C   0  0  0  0  0  0
    8.0875   -1.2889   21.8580 C   0  0  0  0  0  0
    6.8176   -1.2266   18.8080 C   0  0  0  0  0  0
    8.2042   -2.4314   17.6991 C   0  0  0  0  0  0
   10.0829   -3.8122   17.1437 C   0  0  0  0  0  0
    8.9161   -1.9456   18.7975 C   0  0  0  0  0  0
    7.5833   -2.4080   21.8977 O   0  0  0  0  0  0
    7.9811   -1.7256   25.2635 C   0  0  0  0  0  0
    7.0080   -2.0608   26.1923 C   0  0  0  0  0  0
    5.7607   -1.4534   26.1474 C   0  0  0  0  0  0
    6.4899   -0.1457   24.2573 C   0  0  0  0  0  0
    5.5330   -0.4840   25.1914 C   0  0  0  0  0  0
    4.0044    0.3533   25.1703 Cl  0  0  0  0  0  0
    8.2059   -0.5706   20.7264 N   0  0  0  0  0  0
    6.8913   -1.9468   17.7169 N   0  0  0  0  0  0
   10.2010   -2.3797   19.0984 C   0  0  0  0  0  0
   10.7770   -3.3231   18.2537 C   0  0  0  0  0  0
    8.7942   -3.3720   16.8561 C   0  0  0  0  0  0
    9.6235   -1.0858   23.3385 H   0  0  0  0  0  0
    8.8178    0.4325   22.9050 H   0  0  0  0  0  0
    5.9540   -0.6909   19.1734 H   0  0  0  0  0  0
   10.5460   -4.5416   16.4957 H   0  0  0  0  0  0
    8.9517   -2.1953   25.3235 H   0  0  0  0  0  0
    7.2193   -2.7967   26.9540 H   0  0  0  0  0  0
    4.9938   -1.7422   26.8508 H   0  0  0  0  0  0
    6.2890    0.6206   23.5233 H   0  0  0  0  0  0
    8.4542    0.4079   20.7573 H   0  0  0  0  0  0
   10.7159   -1.9855   19.9620 H   0  0  0  0  0  0
   11.7749   -3.6774   18.4657 H   0  0  0  0  0  0
    8.2522   -3.7446   15.9995 H   0  0  0  0  0  0
  1  5  1  0  0  0
  1  8  1  0  0  0
  1 16  1  0  0  0
  2  3  1  0  0  0
  2 10  1  0  0  0
  2 13  2  0  0  0
  3  4  1  0  0  0
  3 21  1  0  0  0
  3 22  1  0  0  0
  4  9  2  0  0  0
  4 16  1  0  0  0
  5 17  2  0  0  0
  5 23  1  0  0  0
  6  8  2  0  0  0
  6 17  1  0  0  0
  6 20  1  0  0  0
  7 19  1  0  0  0
  7 20  2  0  0  0
  7 24  1  0  0  0
  8 18  1  0  0  0
 10 11  2  0  0  0
 10 25  1  0  0  0
 11 12  1  0  0  0
 11 26  1  0  0  0
 12 14  2  0  0  0
 12 27  1  0  0  0
 13 14  1  0  0  0
 13 28  1  0  0  0
 14 15  1  0  0  0
 16 29  1  0  0  0
 18 19  2  0  0  0
 18 30  1  0  0  0
 19 31  1  0  0  0
 20 32  1  0  0  0
M  END
> <s_m_entry_id>
181

> <s_m_entry_name>
7gbx.pdb.1_ligand

> <s_pdb_PDB_TITLE>
GROUP DEPOSITION SARS-COV-2 MAIN PROTEASE IN COMPLEX WITH INHIBITORS FROM THE COVID MOONSHOT -- CRYSTAL STRUCTURE OF SARS-COV-2 MAIN PROTEASE IN COMPLEX WITH JAN-GHE-5A013BED-2 (MPRO-X10466)

> <s_pdb_PDB_ID>
7GBX

> <s_m_Source_File>
7gbx.pdb.gz

> <s_user_Compound_ID>
JAN-GHE-5a013bed-2

> <s_user_Monomer-Dimer>
Monomer

> <s_user_xcode>
Mpro-x10466

$$$$
