7GBY_ligand
                    3D
 Schrodinger Suite 2021-2.
 34 35  0  0  1  0            999 V2000
    6.9408   -1.9553   17.9275 N   0  0  0  0  0  0
    6.0910   -0.6787   26.7580 C   0  0  0  0  0  0
    5.2272    0.4364   26.2751 C   0  0  0  0  0  0
    7.7095   -1.4876   22.2995 C   0  0  0  0  0  0
    8.2174   -1.4602   19.9053 C   0  0  0  0  0  0
    7.0455   -1.4239   19.1478 C   0  0  0  0  0  0
    9.2329   -2.6305   18.0865 C   0  0  0  0  0  0
    7.0743   -2.5374   22.2775 O   0  0  0  0  0  0
    7.9126   -0.7186   23.5816 C   0  0  1  0  0  0
    6.5363   -0.4234   24.2027 C   0  0  0  0  0  0
    6.5314    0.1695   25.6084 C   0  0  0  0  0  0
    8.7822   -1.5694   24.5090 C   0  0  0  0  0  0
    8.2718   -0.9212   21.2112 N   0  0  0  0  0  0
    9.3520   -2.0876   19.3598 C   0  0  0  0  0  0
   10.6384   -2.2301   20.1340 C   0  0  0  0  0  0
    8.0280   -2.5428   17.4171 C   0  0  0  0  0  0
    5.6380   -1.4990   26.2012 H   0  0  0  0  0  0
    6.6087   -0.1573   27.5631 H   0  0  0  0  0  0
    5.5433    1.2144   26.9700 H   0  0  0  0  0  0
    4.5732   -0.1264   25.6090 H   0  0  0  0  0  0
    6.1951   -0.9337   19.5982 H   0  0  0  0  0  0
   10.0795   -3.1175   17.6257 H   0  0  0  0  0  0
    8.4225    0.2202   23.3654 H   0  0  0  0  0  0
    5.9366   -1.3336   24.1951 H   0  0  0  0  0  0
    5.9744    0.2304   23.5356 H   0  0  0  0  0  0
    7.3275    0.8822   25.8240 H   0  0  0  0  0  0
    8.9451   -1.0361   25.4456 H   0  0  0  0  0  0
    8.2799   -2.5151   24.7126 H   0  0  0  0  0  0
    9.7420   -1.7640   24.0305 H   0  0  0  0  0  0
    8.7752   -0.0499   21.2985 H   0  0  0  0  0  0
   11.3776   -2.7446   19.5200 H   0  0  0  0  0  0
   11.0133   -1.2422   20.4017 H   0  0  0  0  0  0
   10.4554   -2.8067   21.0408 H   0  0  0  0  0  0
    7.9922   -2.9810   16.4307 H   0  0  0  0  0  0
  1  6  1  0  0  0
  1 16  2  0  0  0
  2  3  1  0  0  0
  2 11  1  0  0  0
  2 17  1  0  0  0
  2 18  1  0  0  0
  3 11  1  0  0  0
  3 19  1  0  0  0
  3 20  1  0  0  0
  4  8  2  0  0  0
  4  9  1  0  0  0
  4 13  1  0  0  0
  5  6  2  0  0  0
  5 13  1  0  0  0
  5 14  1  0  0  0
  6 21  1  0  0  0
  7 14  2  0  0  0
  7 16  1  0  0  0
  7 22  1  0  0  0
  9 10  1  0  0  0
  9 12  1  0  0  0
  9 23  1  0  0  0
 10 11  1  0  0  0
 10 24  1  0  0  0
 10 25  1  0  0  0
 11 26  1  0  0  0
 12 27  1  0  0  0
 12 28  1  0  0  0
 12 29  1  0  0  0
 13 30  1  0  0  0
 14 15  1  0  0  0
 15 31  1  0  0  0
 15 32  1  0  0  0
 15 33  1  0  0  0
 16 34  1  0  0  0
M  END
> <s_m_entry_id>
183

> <s_m_entry_name>
7gby.pdb.1_ligand

> <s_pdb_PDB_TITLE>
GROUP DEPOSITION SARS-COV-2 MAIN PROTEASE IN COMPLEX WITH INHIBITORS FROM THE COVID MOONSHOT -- CRYSTAL STRUCTURE OF SARS-COV-2 MAIN PROTEASE IN COMPLEX WITH MAT-POS-590AC91E-5 (MPRO-X10473)

> <s_pdb_PDB_ID>
7GBY

> <s_m_Source_File>
7gby.pdb.gz

> <s_user_Compound_ID>
MAT-POS-590ac91e-5

> <s_user_Monomer-Dimer>
Monomer

> <s_user_xcode>
Mpro-x10473

$$$$
