7GBZ_ligand
                    3D
 Schrodinger Suite 2021-2.
 36 36  0  0  1  0            999 V2000
    6.8890   -1.9269   17.9002 N   0  0  0  0  0  0
    7.7145    1.1921   25.0570 C   0  0  0  0  0  0
    8.1010   -0.8192   23.6195 C   0  0  0  0  0  0
    7.6734   -1.4887   22.3356 C   0  0  0  0  0  0
    8.1303   -1.5135   19.9220 C   0  0  0  0  0  0
    6.9754   -1.4347   19.1407 C   0  0  0  0  0  0
    9.1708   -2.6408   18.0806 C   0  0  0  0  0  0
    6.9475   -2.4731   22.3377 O   0  0  0  0  0  0
    7.0433    0.1378   24.1820 C   0  0  1  0  0  0
    5.9139   -0.6419   24.9244 C   0  0  0  0  0  0
    4.7768    0.2461   25.4036 C   0  0  0  0  0  0
    6.4448   -1.4865   26.0717 C   0  0  0  0  0  0
    8.1923   -0.9445   21.2188 N   0  0  0  0  0  0
    9.2671   -2.1602   19.3815 C   0  0  0  0  0  0
   10.5190   -2.3889   20.1893 C   0  0  0  0  0  0
    7.9811   -2.5106   17.3925 C   0  0  0  0  0  0
    6.9589    1.8698   25.4544 H   0  0  0  0  0  0
    8.2336    0.7038   25.8816 H   0  0  0  0  0  0
    8.4311    1.7571   24.4609 H   0  0  0  0  0  0
    9.0297   -0.2739   23.4514 H   0  0  0  0  0  0
    8.3335   -1.5801   24.3645 H   0  0  0  0  0  0
    6.1229   -0.9452   19.5880 H   0  0  0  0  0  0
   10.0233   -3.1124   17.6147 H   0  0  0  0  0  0
    6.5857    0.6542   23.3381 H   0  0  0  0  0  0
    5.4848   -1.3343   24.2000 H   0  0  0  0  0  0
    4.0283   -0.3629   25.9104 H   0  0  0  0  0  0
    5.1655    0.9934   26.0953 H   0  0  0  0  0  0
    4.3202    0.7455   24.5490 H   0  0  0  0  0  0
    5.6173   -2.0074   26.5534 H   0  0  0  0  0  0
    7.1578   -2.2158   25.6871 H   0  0  0  0  0  0
    6.9405   -0.8428   26.7984 H   0  0  0  0  0  0
    8.6738   -0.0579   21.2657 H   0  0  0  0  0  0
   11.2600   -2.9005   19.5751 H   0  0  0  0  0  0
   10.9200   -1.4302   20.5183 H   0  0  0  0  0  0
   10.2836   -3.0016   21.0595 H   0  0  0  0  0  0
    7.9621   -2.9124   16.3903 H   0  0  0  0  0  0
  1  6  1  0  0  0
  1 16  2  0  0  0
  2  9  1  0  0  0
  2 17  1  0  0  0
  2 18  1  0  0  0
  2 19  1  0  0  0
  3  4  1  0  0  0
  3  9  1  0  0  0
  3 20  1  0  0  0
  3 21  1  0  0  0
  4  8  2  0  0  0
  4 13  1  0  0  0
  5  6  2  0  0  0
  5 13  1  0  0  0
  5 14  1  0  0  0
  6 22  1  0  0  0
  7 14  2  0  0  0
  7 16  1  0  0  0
  7 23  1  0  0  0
  9 10  1  0  0  0
  9 24  1  0  0  0
 10 11  1  0  0  0
 10 12  1  0  0  0
 10 25  1  0  0  0
 11 26  1  0  0  0
 11 27  1  0  0  0
 11 28  1  0  0  0
 12 29  1  0  0  0
 12 30  1  0  0  0
 12 31  1  0  0  0
 13 32  1  0  0  0
 14 15  1  0  0  0
 15 33  1  0  0  0
 15 34  1  0  0  0
 15 35  1  0  0  0
 16 36  1  0  0  0
M  END
> <s_m_entry_id>
185

> <s_m_entry_name>
7gbz.pdb.1_ligand

> <s_pdb_PDB_TITLE>
GROUP DEPOSITION SARS-COV-2 MAIN PROTEASE IN COMPLEX WITH INHIBITORS FROM THE COVID MOONSHOT -- CRYSTAL STRUCTURE OF SARS-COV-2 MAIN PROTEASE IN COMPLEX WITH MAT-POS-590AC91E-11 (MPRO-X10474)

> <s_pdb_PDB_ID>
7GBZ

> <s_m_Source_File>
7gbz.pdb.gz

> <s_user_Compound_ID>
MAT-POS-590ac91e-11

> <s_user_Monomer-Dimer>
Monomer

> <s_user_xcode>
Mpro-x10474

$$$$
