7GC0_ligand
                    3D
 Schrodinger Suite 2021-2.
 35 37  0  0  1  0            999 V2000
    8.4001   -0.9829   21.4392 N   0  0  0  0  0  0
    7.1189   -1.4353   19.3967 C   0  0  0  0  0  0
    8.3166   -1.4659   20.1149 C   0  0  0  0  0  0
    7.7635   -1.5440   22.4856 C   0  0  0  0  0  0
    8.0324   -0.8741   23.8060 C   0  0  2  0  0  0
    8.1638   -1.8758   24.9710 C   0  0  0  0  0  0
    6.1646   -0.5219   25.3030 C   0  0  0  0  0  0
    6.9631    0.1595   24.1719 C   0  0  0  0  0  0
    7.0187   -2.5189   22.3863 O   0  0  0  0  0  0
    4.6815   -0.3652   25.3692 C   0  0  0  0  0  0
    5.5624    0.2984   26.3966 C   0  0  0  0  0  0
    6.7837   -1.8975   25.6501 C   0  0  0  0  0  0
    9.4528   -2.0367   19.5151 C   0  0  0  0  0  0
   10.7644   -2.1695   20.2503 C   0  0  0  0  0  0
    6.9907   -1.9308   18.1584 N   0  0  0  0  0  0
    8.0803   -2.4677   17.5961 C   0  0  0  0  0  0
    9.3095   -2.5357   18.2244 C   0  0  0  0  0  0
    8.9627   -0.1699   21.6457 H   0  0  0  0  0  0
    6.2361   -0.9961   19.8374 H   0  0  0  0  0  0
    8.9821   -0.3464   23.7185 H   0  0  0  0  0  0
    8.9093   -1.5122   25.6783 H   0  0  0  0  0  0
    8.3869   -2.8659   24.5734 H   0  0  0  0  0  0
    6.3088    0.3199   23.3150 H   0  0  0  0  0  0
    7.4464    1.0556   24.5612 H   0  0  0  0  0  0
    4.4386   -1.2761   25.9164 H   0  0  0  0  0  0
    4.5678    0.4698   24.6779 H   0  0  0  0  0  0
    5.6474    1.2829   25.9365 H   0  0  0  0  0  0
    5.5182   -0.4632   27.1751 H   0  0  0  0  0  0
    6.9139   -1.9725   26.7297 H   0  0  0  0  0  0
    6.1768   -2.6881   25.2089 H   0  0  0  0  0  0
   11.5017   -2.6370   19.5976 H   0  0  0  0  0  0
   11.1170   -1.1816   20.5468 H   0  0  0  0  0  0
   10.6232   -2.7858   21.1381 H   0  0  0  0  0  0
    8.0267   -2.8779   16.5985 H   0  0  0  0  0  0
   10.1566   -2.9738   17.7177 H   0  0  0  0  0  0
  1  3  1  0  0  0
  1  4  1  0  0  0
  1 18  1  0  0  0
  2  3  1  0  0  0
  2 15  2  0  0  0
  2 19  1  0  0  0
  3 13  2  0  0  0
  4  5  1  0  0  0
  4  9  2  0  0  0
  5  6  1  0  0  0
  5  8  1  0  0  0
  5 20  1  0  0  0
  6 12  1  0  0  0
  6 21  1  0  0  0
  6 22  1  0  0  0
  7  8  1  0  0  0
  7 10  1  0  0  0
  7 11  1  0  0  0
  7 12  1  0  0  0
  8 23  1  0  0  0
  8 24  1  0  0  0
 10 11  1  0  0  0
 10 25  1  0  0  0
 10 26  1  0  0  0
 11 27  1  0  0  0
 11 28  1  0  0  0
 12 29  1  0  0  0
 12 30  1  0  0  0
 13 14  1  0  0  0
 13 17  1  0  0  0
 14 31  1  0  0  0
 14 32  1  0  0  0
 14 33  1  0  0  0
 15 16  1  0  0  0
 16 17  2  0  0  0
 16 34  1  0  0  0
 17 35  1  0  0  0
M  END
> <s_m_entry_id>
187

> <s_m_entry_name>
7gc0.pdb.1_ligand

> <s_pdb_PDB_TITLE>
GROUP DEPOSITION SARS-COV-2 MAIN PROTEASE IN COMPLEX WITH INHIBITORS FROM THE COVID MOONSHOT -- CRYSTAL STRUCTURE OF SARS-COV-2 MAIN PROTEASE IN COMPLEX WITH MAT-POS-590AC91E-21 (MPRO-X10476)

> <s_pdb_PDB_ID>
7GC0

> <s_m_Source_File>
7gc0.pdb.gz

> <s_user_Compound_ID>
MAT-POS-590ac91e-21

> <s_user_Monomer-Dimer>
Monomer

> <s_user_xcode>
Mpro-x10476

$$$$
