7GC1_ligand
                    3D
 Schrodinger Suite 2021-2.
 35 37  0  0  1  0            999 V2000
    8.2271   -0.8597   21.3096 N   0  0  0  0  0  0
    6.9780   -1.4581   19.2818 C   0  0  0  0  0  0
    8.1619   -1.4392   20.0222 C   0  0  0  0  0  0
    7.6509   -1.3165   22.4348 C   0  0  0  0  0  0
    7.8310   -0.3966   23.6209 C   0  0  0  0  0  0
    6.9039   -0.6771   24.8280 C   0  0  2  0  0  0
    6.2622    0.4346   25.6087 C   0  0  2  0  0  0
    7.2466   -1.7833   25.8327 C   0  0  0  0  0  0
    7.0131   -2.3635   22.5077 O   0  0  0  0  0  0
    6.8859   -1.9884   18.0572 N   0  0  0  0  0  0
    7.9978   -2.5127   17.5309 C   0  0  0  0  0  0
    9.2160   -2.5375   18.1817 C   0  0  0  0  0  0
    9.3224   -2.0046   19.4595 C   0  0  0  0  0  0
   10.6225   -2.0838   20.2222 C   0  0  0  0  0  0
    7.3573   -1.0318   27.1506 C   0  0  0  0  0  0
    6.2854    0.0389   27.0848 C   0  0  0  0  0  0
    5.4422   -0.4134   24.6735 C   0  0  0  0  0  0
    8.7511   -0.0085   21.4542 H   0  0  0  0  0  0
    6.0763   -1.0300   19.6943 H   0  0  0  0  0  0
    7.7000    0.6364   23.2986 H   0  0  0  0  0  0
    8.8698   -0.4312   23.9490 H   0  0  0  0  0  0
    6.4785    1.4671   25.3343 H   0  0  0  0  0  0
    8.2168   -2.2109   25.5799 H   0  0  0  0  0  0
    6.4169   -2.4879   25.8890 H   0  0  0  0  0  0
    7.9740   -2.9488   16.5431 H   0  0  0  0  0  0
   10.0787   -2.9697   17.6965 H   0  0  0  0  0  0
   11.3820   -2.5554   19.5986 H   0  0  0  0  0  0
   10.9475   -1.0791   20.4925 H   0  0  0  0  0  0
   10.4781   -2.6742   21.1270 H   0  0  0  0  0  0
    8.3371   -0.5588   27.2158 H   0  0  0  0  0  0
    7.1387   -1.7119   27.9739 H   0  0  0  0  0  0
    5.3239   -0.3968   27.3561 H   0  0  0  0  0  0
    6.5953    0.8960   27.6826 H   0  0  0  0  0  0
    5.0587   -1.1399   25.3900 H   0  0  0  0  0  0
    5.4737    0.2237   23.7897 H   0  0  0  0  0  0
  1  3  1  0  0  0
  1  4  1  0  0  0
  1 18  1  0  0  0
  2  3  1  0  0  0
  2 10  2  0  0  0
  2 19  1  0  0  0
  3 13  2  0  0  0
  4  5  1  0  0  0
  4  9  2  0  0  0
  5  6  1  0  0  0
  5 20  1  0  0  0
  5 21  1  0  0  0
  6  7  1  0  0  0
  6  8  1  0  0  0
  6 17  1  0  0  0
  7 16  1  0  0  0
  7 17  1  0  0  0
  7 22  1  0  0  0
  8 15  1  0  0  0
  8 23  1  0  0  0
  8 24  1  0  0  0
 10 11  1  0  0  0
 11 12  2  0  0  0
 11 25  1  0  0  0
 12 13  1  0  0  0
 12 26  1  0  0  0
 13 14  1  0  0  0
 14 27  1  0  0  0
 14 28  1  0  0  0
 14 29  1  0  0  0
 15 16  1  0  0  0
 15 30  1  0  0  0
 15 31  1  0  0  0
 16 32  1  0  0  0
 16 33  1  0  0  0
 17 34  1  0  0  0
 17 35  1  0  0  0
M  END
> <s_m_entry_id>
189

> <s_m_entry_name>
7gc1.pdb.1_ligand

> <s_pdb_PDB_TITLE>
GROUP DEPOSITION SARS-COV-2 MAIN PROTEASE IN COMPLEX WITH INHIBITORS FROM THE COVID MOONSHOT -- CRYSTAL STRUCTURE OF SARS-COV-2 MAIN PROTEASE IN COMPLEX WITH MAT-POS-590AC91E-25 (MPRO-X10478)

> <s_pdb_PDB_ID>
7GC1

> <s_m_Source_File>
7gc1.pdb.gz

> <s_user_Compound_ID>
MAT-POS-590ac91e-25

> <s_user_Monomer-Dimer>
Monomer

> <s_user_xcode>
Mpro-x10478

$$$$
