7GC2_ligand
                    3D
 Schrodinger Suite 2021-2.
 40 41  0  0  1  0            999 V2000
    9.0960   -1.6546   20.8281 N   0  0  0  0  0  0
    7.3338   -1.5394   19.1060 C   0  0  0  0  0  0
    8.6496   -1.8003   19.4918 C   0  0  0  0  0  0
    8.3921   -1.6137   21.9786 C   0  0  0  0  0  0
    9.1716   -1.0863   23.1656 C   0  0  0  0  0  0
    8.4634    0.0242   23.9843 C   0  0  0  0  0  0
    9.4937    0.6848   24.9081 C   0  0  0  0  0  0
    5.0007   -0.6877   25.4631 C   0  0  0  0  0  0
    6.5391   -2.2809   26.3479 C   0  0  0  0  0  0
    7.2464   -2.0403   22.0914 O   0  0  0  0  0  0
    6.8058   -1.9354   17.9430 N   0  0  0  0  0  0
    7.5985   -2.6169   17.1124 C   0  0  0  0  0  0
    8.9172   -2.9091   17.3883 C   0  0  0  0  0  0
    9.4801   -2.4911   18.5913 C   0  0  0  0  0  0
   10.9150   -2.8150   18.9175 C   0  0  0  0  0  0
    7.9738    1.0992   23.0021 C   0  0  0  0  0  0
    7.3273   -0.5876   24.8151 C   0  0  0  0  0  0
    7.5704   -1.6835   25.6392 C   0  0  0  0  0  0
    5.2550   -1.7841   26.2570 C   0  0  0  0  0  0
    6.0258   -0.0943   24.7424 C   0  0  0  0  0  0
   10.0825   -1.5616   21.0237 H   0  0  0  0  0  0
    6.6777   -0.9876   19.7629 H   0  0  0  0  0  0
   10.1410   -0.7212   22.8265 H   0  0  0  0  0  0
    9.4255   -1.9149   23.8267 H   0  0  0  0  0  0
    9.0101    1.4688   25.4909 H   0  0  0  0  0  0
    9.9107   -0.0635   25.5821 H   0  0  0  0  0  0
   10.2938    1.1195   24.3089 H   0  0  0  0  0  0
    3.9998   -0.2870   25.4003 H   0  0  0  0  0  0
    6.7395   -3.1381   26.9735 H   0  0  0  0  0  0
    7.2136   -2.9706   16.1673 H   0  0  0  0  0  0
    9.5093   -3.4601   16.6727 H   0  0  0  0  0  0
   11.3662   -3.3502   18.0820 H   0  0  0  0  0  0
   11.4651   -1.8911   19.0961 H   0  0  0  0  0  0
   10.9532   -3.4384   19.8108 H   0  0  0  0  0  0
    7.4709    1.8938   23.5534 H   0  0  0  0  0  0
    8.8252    1.5145   22.4630 H   0  0  0  0  0  0
    7.2773    0.6533   22.2921 H   0  0  0  0  0  0
    8.5764   -2.0676   25.7228 H   0  0  0  0  0  0
    4.4508   -2.2517   26.8056 H   0  0  0  0  0  0
    5.8204    0.7606   24.1153 H   0  0  0  0  0  0
  1  3  1  0  0  0
  1  4  1  0  0  0
  1 21  1  0  0  0
  2  3  1  0  0  0
  2 11  2  0  0  0
  2 22  1  0  0  0
  3 14  2  0  0  0
  4  5  1  0  0  0
  4 10  2  0  0  0
  5  6  1  0  0  0
  5 23  1  0  0  0
  5 24  1  0  0  0
  6  7  1  0  0  0
  6 16  1  0  0  0
  6 17  1  0  0  0
  7 25  1  0  0  0
  7 26  1  0  0  0
  7 27  1  0  0  0
  8 19  1  0  0  0
  8 20  2  0  0  0
  8 28  1  0  0  0
  9 18  1  0  0  0
  9 19  2  0  0  0
  9 29  1  0  0  0
 11 12  1  0  0  0
 12 13  2  0  0  0
 12 30  1  0  0  0
 13 14  1  0  0  0
 13 31  1  0  0  0
 14 15  1  0  0  0
 15 32  1  0  0  0
 15 33  1  0  0  0
 15 34  1  0  0  0
 16 35  1  0  0  0
 16 36  1  0  0  0
 16 37  1  0  0  0
 17 18  2  0  0  0
 17 20  1  0  0  0
 18 38  1  0  0  0
 19 39  1  0  0  0
 20 40  1  0  0  0
M  END
> <s_m_entry_id>
191

> <s_m_entry_name>
7gc2.pdb.1_ligand

> <s_pdb_PDB_TITLE>
GROUP DEPOSITION SARS-COV-2 MAIN PROTEASE IN COMPLEX WITH INHIBITORS FROM THE COVID MOONSHOT -- CRYSTAL STRUCTURE OF SARS-COV-2 MAIN PROTEASE IN COMPLEX WITH BEN-DND-93268D01-13 (MPRO-X10484)

> <s_pdb_PDB_ID>
7GC2

> <s_m_Source_File>
7gc2.pdb.gz

> <s_user_Compound_ID>
BEN-DND-93268d01-13

> <s_user_Monomer-Dimer>
Monomer

> <s_user_xcode>
Mpro-x10484

$$$$
