7GC3_ligand
                    3D
 Schrodinger Suite 2021-2.
 40 43  0  0  1  0            999 V2000
    9.4911   -1.9773   22.6647 N   0  0  0  0  0  0
    7.6990   -0.9320   24.4917 N   0  0  0  0  0  0
    9.0599   -3.2440   17.4833 C   0  0  0  0  0  0
    7.8163   -3.0178   16.9196 C   0  0  0  0  0  0
    7.2405   -1.5537   18.5845 C   0  0  0  0  0  0
   10.7506   -1.2096   22.6159 C   0  0  0  0  0  0
   11.1496   -1.1080   24.0731 C   0  0  0  0  0  0
    9.3381   -2.7141   23.9276 C   0  0  2  0  0  0
    5.7274    0.2797   25.4035 C   0  0  0  0  0  0
    5.2510    0.6221   26.7832 C   0  0  0  0  0  0
    6.9070   -2.1873   17.4548 N   0  0  0  0  0  0
    7.4036   -2.9215   25.5059 N   0  0  0  0  0  0
    8.1283   -2.2228   24.6823 C   0  0  0  0  0  0
    8.7336   -1.0134   20.5370 C   0  0  0  0  0  0
    6.3957   -2.0005   25.9033 O   0  0  0  0  0  0
    8.4565   -1.7077   19.2269 C   0  0  0  0  0  0
   10.6592   -2.4311   24.6627 C   0  0  0  0  0  0
    6.6540   -0.8597   25.2428 C   0  0  0  0  0  0
    4.3156    0.0041   25.8205 C   0  0  0  0  0  0
    8.5629   -1.9965   21.6778 C   0  0  0  0  0  0
    7.6432   -2.8006   21.6732 O   0  0  0  0  0  0
    9.3753   -2.5777   18.6529 C   0  0  0  0  0  0
    9.7518   -3.9248   17.0096 H   0  0  0  0  0  0
    7.5383   -3.5207   16.0051 H   0  0  0  0  0  0
    6.5414   -0.8741   19.0490 H   0  0  0  0  0  0
   10.5486   -0.2112   22.2278 H   0  0  0  0  0  0
   11.5023   -1.7856   22.0763 H   0  0  0  0  0  0
   10.6080   -0.2842   24.5379 H   0  0  0  0  0  0
   12.2362   -1.0623   24.1462 H   0  0  0  0  0  0
    9.2443   -3.7814   23.7274 H   0  0  0  0  0  0
    5.8732    1.1184   24.7227 H   0  0  0  0  0  0
    4.9972    1.6703   26.6255 H   0  0  0  0  0  0
    5.5787   -0.2747   27.3090 H   0  0  0  0  0  0
    8.0361   -0.1854   20.6638 H   0  0  0  0  0  0
    9.7545   -0.6314   20.5366 H   0  0  0  0  0  0
   10.4598   -2.3004   25.7263 H   0  0  0  0  0  0
   11.3771   -3.2178   24.4308 H   0  0  0  0  0  0
    4.4209   -1.0392   26.1182 H   0  0  0  0  0  0
    3.8394    0.9055   25.4349 H   0  0  0  0  0  0
   10.3362   -2.7334   19.1208 H   0  0  0  0  0  0
  1  6  1  0  0  0
  1  8  1  0  0  0
  1 20  1  0  0  0
  2 13  1  0  0  0
  2 18  2  0  0  0
  3  4  1  0  0  0
  3 22  2  0  0  0
  3 23  1  0  0  0
  4 11  2  0  0  0
  4 24  1  0  0  0
  5 11  1  0  0  0
  5 16  2  0  0  0
  5 25  1  0  0  0
  6  7  1  0  0  0
  6 26  1  0  0  0
  6 27  1  0  0  0
  7 17  1  0  0  0
  7 28  1  0  0  0
  7 29  1  0  0  0
  8 13  1  0  0  0
  8 17  1  0  0  0
  8 30  1  0  0  0
  9 10  1  0  0  0
  9 18  1  0  0  0
  9 19  1  0  0  0
  9 31  1  0  0  0
 10 19  1  0  0  0
 10 32  1  0  0  0
 10 33  1  0  0  0
 12 13  2  0  0  0
 12 15  1  0  0  0
 14 16  1  0  0  0
 14 20  1  0  0  0
 14 34  1  0  0  0
 14 35  1  0  0  0
 15 18  1  0  0  0
 16 22  1  0  0  0
 17 36  1  0  0  0
 17 37  1  0  0  0
 19 38  1  0  0  0
 19 39  1  0  0  0
 20 21  2  0  0  0
 22 40  1  0  0  0
M  END
> <s_m_entry_id>
193

> <s_m_entry_name>
7gc3.pdb.1_ligand

> <s_pdb_PDB_TITLE>
GROUP DEPOSITION SARS-COV-2 MAIN PROTEASE IN COMPLEX WITH INHIBITORS FROM THE COVID MOONSHOT -- CRYSTAL STRUCTURE OF SARS-COV-2 MAIN PROTEASE IN COMPLEX WITH JAG-UCB-CEDD89AB-4 (MPRO-X10488)

> <s_pdb_PDB_ID>
7GC3

> <s_m_Source_File>
7gc3.pdb.gz

> <s_user_Compound_ID>
JAG-UCB-cedd89ab-4 

> <s_user_Monomer-Dimer>
Monomer

> <s_user_xcode>
Mpro-x10488

$$$$
