7GC4_ligand
                    3D
 Schrodinger Suite 2021-2.
 33 34  0  0  1  0            999 V2000
    6.2483   -0.7169   19.1949 N   0  0  0  0  0  0
    7.2179   -1.5015   18.7149 C   0  0  0  0  0  0
    8.4312   -1.6967   19.4167 C   0  0  0  0  0  0
    8.1240   -1.5171   21.8238 C   0  0  0  0  0  0
    8.5780   -0.7546   23.0534 C   0  0  0  0  0  0
    7.5909   -0.8711   24.1903 C   0  0  0  0  0  0
    6.9158   -1.8360   26.2968 C   0  0  0  0  0  0
    6.3566   -0.2379   24.1060 C   0  0  0  0  0  0
    7.0020   -2.1222   17.5300 N   0  0  0  0  0  0
    8.6476   -1.0656   20.6666 N   0  0  0  0  0  0
    9.4149   -2.5359   18.8782 C   0  0  0  0  0  0
    5.6767   -1.2257   26.1962 C   0  0  0  0  0  0
    9.1599   -3.1363   17.6521 C   0  0  0  0  0  0
    7.8687   -1.6511   25.3053 C   0  0  0  0  0  0
    5.4302   -0.4071   25.1139 C   0  0  0  0  0  0
   10.7159   -2.7924   19.5964 C   0  0  0  0  0  0
    7.3662   -2.4805   21.8944 O   0  0  0  0  0  0
    7.9614   -2.9039   17.0213 C   0  0  0  0  0  0
    3.9611    0.5250   25.0656 Cl  0  0  0  0  0  0
    5.3922   -0.5952   18.6730 H   0  0  0  0  0  0
    6.3716   -0.2455   20.0796 H   0  0  0  0  0  0
    8.7147    0.2963   22.7983 H   0  0  0  0  0  0
    9.5486   -1.1316   23.3759 H   0  0  0  0  0  0
    7.1434   -2.4587   27.1493 H   0  0  0  0  0  0
    6.1258    0.3839   23.2537 H   0  0  0  0  0  0
    9.2188   -0.2344   20.7205 H   0  0  0  0  0  0
    4.9280   -1.3954   26.9558 H   0  0  0  0  0  0
    9.9008   -3.7802   17.2016 H   0  0  0  0  0  0
    8.8353   -2.1217   25.4079 H   0  0  0  0  0  0
   11.3312   -3.4697   19.0041 H   0  0  0  0  0  0
   11.2457   -1.8503   19.7372 H   0  0  0  0  0  0
   10.5125   -3.2429   20.5679 H   0  0  0  0  0  0
    7.8134   -3.3894   16.0680 H   0  0  0  0  0  0
  1  2  1  0  0  0
  1 20  1  0  0  0
  1 21  1  0  0  0
  2  3  1  0  0  0
  2  9  2  0  0  0
  3 10  1  0  0  0
  3 11  2  0  0  0
  4  5  1  0  0  0
  4 10  1  0  0  0
  4 17  2  0  0  0
  5  6  1  0  0  0
  5 22  1  0  0  0
  5 23  1  0  0  0
  6  8  1  0  0  0
  6 14  2  0  0  0
  7 12  2  0  0  0
  7 14  1  0  0  0
  7 24  1  0  0  0
  8 15  2  0  0  0
  8 25  1  0  0  0
  9 18  1  0  0  0
 10 26  1  0  0  0
 11 13  1  0  0  0
 11 16  1  0  0  0
 12 15  1  0  0  0
 12 27  1  0  0  0
 13 18  2  0  0  0
 13 28  1  0  0  0
 14 29  1  0  0  0
 15 19  1  0  0  0
 16 30  1  0  0  0
 16 31  1  0  0  0
 16 32  1  0  0  0
 18 33  1  0  0  0
M  END
> <s_m_entry_id>
195

> <s_m_entry_name>
7gc4.pdb.1_ligand

> <s_pdb_PDB_TITLE>
GROUP DEPOSITION SARS-COV-2 MAIN PROTEASE IN COMPLEX WITH INHIBITORS FROM THE COVID MOONSHOT -- CRYSTAL STRUCTURE OF SARS-COV-2 MAIN PROTEASE IN COMPLEX WITH EDG-MED-0DA5AD92-18 (MPRO-X10494)

> <s_pdb_PDB_ID>
7GC4

> <s_m_Source_File>
7gc4.pdb.gz

> <s_user_Compound_ID>
EDG-MED-0da5ad92-18

> <s_user_Monomer-Dimer>
Monomer

> <s_user_xcode>
Mpro-x10494

$$$$
