7GC7_ligand
                    3D
 Schrodinger Suite 2021-2.
 46 48  0  0  1  0            999 V2000
    8.6583   -3.1290   17.1892 N   0  0  0  0  0  0
    4.6953   -0.6378   25.4870 C   0  0  0  0  0  0
    5.6239   -0.1012   24.6087 C   0  0  0  0  0  0
    6.8003   -0.7892   24.3453 C   0  0  0  0  0  0
    8.7594    0.4864   23.5692 C   0  0  1  0  0  0
    8.3313    1.7081   24.3400 C   0  0  0  0  0  0
    9.3492    0.0694   19.8937 C   0  0  0  0  0  0
    7.5926   -2.3508   17.5598 C   0  0  0  0  0  0
   10.9732   -3.8311   17.2773 C   0  0  0  0  0  0
   12.4543   -2.7434   18.7667 C   0  0  0  0  0  0
    8.9128   -0.0301   21.1477 N   0  0  0  0  0  0
    7.0586   -2.0133   25.0061 C   0  0  0  0  0  0
    9.1103   -1.1079   19.0209 C   0  0  0  0  0  0
   11.4717   -1.9108   19.2345 C   0  0  0  0  0  0
    7.6514   -0.4278   23.3244 O   0  0  0  0  0  0
    6.4571   -2.6431   17.1914 O   0  0  0  0  0  0
    6.1352   -2.5135   25.9160 C   0  0  0  0  0  0
   12.2454   -3.6963   17.8055 C   0  0  0  0  0  0
   13.7163   -2.5643   19.2392 F   0  0  0  0  0  0
    9.2656    0.9478   22.1700 C   0  0  0  0  0  0
    7.8785   -1.2995   18.4779 C   0  0  0  0  0  0
   10.2011   -2.0062   18.6697 C   0  0  0  0  0  0
    9.9451   -2.9966   17.7054 C   0  0  0  0  0  0
    8.3807   -4.0112   25.0577 C   0  0  0  0  0  0
    8.1883   -2.6728   24.6028 O   0  0  0  0  0  0
    9.9624    1.0514   19.4845 O   0  0  0  0  0  0
    4.9496   -1.8310   26.1351 C   0  0  0  0  0  0
    8.5369   -3.8558   16.4985 H   0  0  0  0  0  0
    3.7639   -0.1224   25.6694 H   0  0  0  0  0  0
    5.4307    0.8487   24.1323 H   0  0  0  0  0  0
    9.5575   -0.0300   24.1026 H   0  0  0  0  0  0
    9.1915    2.3588   24.4976 H   0  0  0  0  0  0
    7.5686    2.2453   23.7762 H   0  0  0  0  0  0
    7.9238    1.4055   25.3046 H   0  0  0  0  0  0
   10.7758   -4.5859   16.5304 H   0  0  0  0  0  0
    8.3179   -0.8010   21.4158 H   0  0  0  0  0  0
   11.6918   -1.2043   20.0211 H   0  0  0  0  0  0
    6.3435   -3.4299   26.4482 H   0  0  0  0  0  0
   13.0446   -4.3343   17.4583 H   0  0  0  0  0  0
   10.3485    1.0694   22.1977 H   0  0  0  0  0  0
    8.8183    1.9102   21.9214 H   0  0  0  0  0  0
    7.0992   -0.6116   18.7709 H   0  0  0  0  0  0
    9.3164   -4.4008   24.6567 H   0  0  0  0  0  0
    8.4198   -4.0232   26.1469 H   0  0  0  0  0  0
    7.5531   -4.6336   24.7175 H   0  0  0  0  0  0
    4.2210   -2.2397   26.8196 H   0  0  0  0  0  0
  1  8  1  0  0  0
  1 23  1  0  0  0
  1 28  1  0  0  0
  2  3  1  0  0  0
  2 27  2  0  0  0
  2 29  1  0  0  0
  3  4  2  0  0  0
  3 30  1  0  0  0
  4 12  1  0  0  0
  4 15  1  0  0  0
  5  6  1  0  0  0
  5 15  1  0  0  0
  5 20  1  0  0  0
  5 31  1  0  0  0
  6 32  1  0  0  0
  6 33  1  0  0  0
  6 34  1  0  0  0
  7 11  1  0  0  0
  7 13  1  0  0  0
  7 26  2  0  0  0
  8 16  2  0  0  0
  8 21  1  0  0  0
  9 18  1  0  0  0
  9 23  2  0  0  0
  9 35  1  0  0  0
 10 14  1  0  0  0
 10 18  2  0  0  0
 10 19  1  0  0  0
 11 20  1  0  0  0
 11 36  1  0  0  0
 12 17  2  0  0  0
 12 25  1  0  0  0
 13 21  2  0  0  0
 13 22  1  0  0  0
 14 22  2  0  0  0
 14 37  1  0  0  0
 17 27  1  0  0  0
 17 38  1  0  0  0
 18 39  1  0  0  0
 20 40  1  0  0  0
 20 41  1  0  0  0
 21 42  1  0  0  0
 22 23  1  0  0  0
 24 25  1  0  0  0
 24 43  1  0  0  0
 24 44  1  0  0  0
 24 45  1  0  0  0
 27 46  1  0  0  0
M  END
> <s_m_entry_id>
197

> <s_m_entry_name>
7gc7.pdb.1_ligand

> <s_pdb_PDB_TITLE>
GROUP DEPOSITION SARS-COV-2 MAIN PROTEASE IN COMPLEX WITH INHIBITORS FROM THE COVID MOONSHOT -- CRYSTAL STRUCTURE OF SARS-COV-2 MAIN PROTEASE IN COMPLEX WITH MAT-POS-590AC91E-39 (MPRO-X10525)

> <s_pdb_PDB_ID>
7GC7

> <s_m_Source_File>
7gc7.pdb.gz

> <s_user_Compound_ID>
MAT-POS-590ac91e-39

> <s_user_Monomer-Dimer>
Monomer

> <s_user_xcode>
Mpro-x10525

$$$$
