7GC8_ligand
                    3D
 Schrodinger Suite 2021-2.
 30 32  0  0  1  0            999 V2000
    9.5830   -0.1861   21.0244 N   0  0  0  0  0  0
    7.5867   -0.8311   23.9432 C   0  0  0  0  0  0
    6.3802   -0.1383   24.0092 C   0  0  0  0  0  0
    9.0669    0.2183   22.2037 C   0  0  0  0  0  0
    9.3125   -1.5871   20.7306 C   0  0  1  0  0  0
    8.3217   -1.9312   21.8238 C   0  0  0  0  0  0
    9.5235   -2.7862   18.5075 C   0  0  0  0  0  0
    7.5480   -1.5483   18.9055 C   0  0  0  0  0  0
    8.8106   -1.9318   19.3361 C   0  0  0  0  0  0
    7.6849   -2.8175   17.0087 C   0  0  0  0  0  0
    8.3266   -0.8565   22.7108 N   0  0  0  0  0  0
    6.9753   -1.9807   17.7776 N   0  0  0  0  0  0
    8.9602   -3.2432   17.3290 C   0  0  0  0  0  0
    6.0832   -0.9092   26.2788 C   0  0  0  0  0  0
    7.5978   -2.9032   21.9160 O   0  0  0  0  0  0
    5.6522   -0.1897   25.1805 C   0  0  0  0  0  0
    7.2958   -1.5801   26.2057 C   0  0  0  0  0  0
    9.2174    1.3070   22.7362 O   0  0  0  0  0  0
    8.0530   -1.5400   25.0465 C   0  0  0  0  0  0
    4.1657    0.7097   25.2830 Cl  0  0  0  0  0  0
   10.0960    0.4653   20.4477 H   0  0  0  0  0  0
    6.0326    0.4234   23.1547 H   0  0  0  0  0  0
   10.2262   -2.1534   20.9112 H   0  0  0  0  0  0
   10.5211   -3.0965   18.7815 H   0  0  0  0  0  0
    6.9631   -0.8578   19.4950 H   0  0  0  0  0  0
    7.2638   -3.1931   16.0879 H   0  0  0  0  0  0
    9.5154   -3.9132   16.6893 H   0  0  0  0  0  0
    5.4792   -0.9424   27.1735 H   0  0  0  0  0  0
    7.6559   -2.1390   27.0568 H   0  0  0  0  0  0
    9.0009   -2.0552   24.9961 H   0  0  0  0  0  0
  1  4  1  0  0  0
  1  5  1  0  0  0
  1 21  1  0  0  0
  2  3  1  0  0  0
  2 11  1  0  0  0
  2 19  2  0  0  0
  3 16  2  0  0  0
  3 22  1  0  0  0
  4 11  1  0  0  0
  4 18  2  0  0  0
  5  6  1  0  0  0
  5  9  1  0  0  0
  5 23  1  0  0  0
  6 11  1  0  0  0
  6 15  2  0  0  0
  7  9  1  0  0  0
  7 13  2  0  0  0
  7 24  1  0  0  0
  8  9  2  0  0  0
  8 12  1  0  0  0
  8 25  1  0  0  0
 10 12  2  0  0  0
 10 13  1  0  0  0
 10 26  1  0  0  0
 13 27  1  0  0  0
 14 16  1  0  0  0
 14 17  2  0  0  0
 14 28  1  0  0  0
 16 20  1  0  0  0
 17 19  1  0  0  0
 17 29  1  0  0  0
 19 30  1  0  0  0
M  END
> <s_m_entry_id>
199

> <s_m_entry_name>
7gc8.pdb.1_ligand

> <s_pdb_PDB_TITLE>
GROUP DEPOSITION SARS-COV-2 MAIN PROTEASE IN COMPLEX WITH INHIBITORS FROM THE COVID MOONSHOT -- CRYSTAL STRUCTURE OF SARS-COV-2 MAIN PROTEASE IN COMPLEX WITH JAN-GHE-83B26C96-18 (MPRO-X10535)

> <s_pdb_PDB_ID>
7GC8

> <s_m_Source_File>
7gc8.pdb.gz

> <s_user_Compound_ID>
JAN-GHE-83b26c96-18

> <s_user_Monomer-Dimer>
Monomer

> <s_user_xcode>
Mpro-x10535

$$$$
