7GC9_ligand
                    3D
 Schrodinger Suite 2021-2.
 35 37  0  0  1  0            999 V2000
    8.8407   -1.8905   21.4588 N   0  0  0  0  0  0
    7.3601   -1.7298   19.4824 C   0  0  0  0  0  0
    8.6036   -1.9954   20.0645 C   0  0  0  0  0  0
    7.9763   -1.6338   22.4622 C   0  0  0  0  0  0
    8.6158   -1.0608   23.7077 C   0  0  1  0  0  0
    9.1543    0.3796   23.6306 C   0  0  0  0  0  0
    7.6411   -0.5835   24.8398 C   0  0  0  0  0  0
    6.1183   -0.2781   24.7284 C   0  0  0  0  0  0
    6.7940   -1.9327   22.4207 O   0  0  0  0  0  0
    5.8253   -1.4175   25.7029 C   0  0  0  0  0  0
    7.3108   -1.4820   26.0632 C   0  0  0  0  0  0
    8.5490    0.6581   25.0183 C   0  0  0  0  0  0
    9.6563   -2.4187   19.2292 C   0  0  0  0  0  0
   11.0524   -2.6406   19.7547 C   0  0  0  0  0  0
    7.0924   -1.9234   18.1876 N   0  0  0  0  0  0
    8.0845   -2.3844   17.4198 C   0  0  0  0  0  0
    9.3608   -2.6295   17.8860 C   0  0  0  0  0  0
    9.7743   -2.0158   21.8231 H   0  0  0  0  0  0
    6.5516   -1.3463   20.0872 H   0  0  0  0  0  0
    9.3716   -1.7386   24.1046 H   0  0  0  0  0  0
    8.5544    0.9166   22.8958 H   0  0  0  0  0  0
   10.2371    0.3330   23.7470 H   0  0  0  0  0  0
    5.7885   -0.5957   23.7392 H   0  0  0  0  0  0
    5.9298    0.6602   25.2499 H   0  0  0  0  0  0
    5.5887   -2.3039   25.1144 H   0  0  0  0  0  0
    5.2957   -0.9949   26.5567 H   0  0  0  0  0  0
    7.4597   -0.8846   26.9627 H   0  0  0  0  0  0
    7.6625   -2.4891   25.8391 H   0  0  0  0  0  0
    7.9176    1.5421   24.9297 H   0  0  0  0  0  0
    9.3050    0.4078   25.7625 H   0  0  0  0  0  0
   11.7007   -2.9636   18.9401 H   0  0  0  0  0  0
   11.4347   -1.7108   20.1757 H   0  0  0  0  0  0
   11.0322   -3.4080   20.5285 H   0  0  0  0  0  0
    7.9086   -2.5856   16.3734 H   0  0  0  0  0  0
   10.1281   -2.9832   17.2134 H   0  0  0  0  0  0
  1  3  1  0  0  0
  1  4  1  0  0  0
  1 18  1  0  0  0
  2  3  1  0  0  0
  2 15  2  0  0  0
  2 19  1  0  0  0
  3 13  2  0  0  0
  4  5  1  0  0  0
  4  9  2  0  0  0
  5  6  1  0  0  0
  5  7  1  0  0  0
  5 20  1  0  0  0
  6 12  1  0  0  0
  6 21  1  0  0  0
  6 22  1  0  0  0
  7  8  1  0  0  0
  7 11  1  0  0  0
  7 12  1  0  0  0
  8 10  1  0  0  0
  8 23  1  0  0  0
  8 24  1  0  0  0
 10 11  1  0  0  0
 10 25  1  0  0  0
 10 26  1  0  0  0
 11 27  1  0  0  0
 11 28  1  0  0  0
 12 29  1  0  0  0
 12 30  1  0  0  0
 13 14  1  0  0  0
 13 17  1  0  0  0
 14 31  1  0  0  0
 14 32  1  0  0  0
 14 33  1  0  0  0
 15 16  1  0  0  0
 16 17  2  0  0  0
 16 34  1  0  0  0
 17 35  1  0  0  0
M  END
> <s_m_entry_id>
205

> <s_m_entry_name>
7GC9_ligand.1

> <s_pdb_PDB_TITLE>
GROUP DEPOSITION SARS-COV-2 MAIN PROTEASE IN COMPLEX WITH INHIBITORS FROM THE COVID MOONSHOT -- CRYSTAL STRUCTURE OF SARS-COV-2 MAIN PROTEASE IN COMPLEX WITH MAT-POS-590AC91E-22 (MPRO-X10555)

> <s_pdb_PDB_ID>
7GC9

> <s_m_Source_File>
7GC9_ligand.sdf

> <s_user_Compound_ID>
MAT-POS-590ac91e-22

> <s_user_Monomer-Dimer>
Monomer

> <s_user_xcode>
x10555

$$$$
