7GCA_ligand
                    3D
 Schrodinger Suite 2021-2.
 35 37  0  0  1  0            999 V2000
    8.5490   -1.1100   20.8386 N   0  0  0  0  0  0
    7.1469   -1.5479   18.8844 C   0  0  0  0  0  0
    8.3626   -1.6616   19.5580 C   0  0  0  0  0  0
    8.0498   -1.6374   21.9716 C   0  0  0  0  0  0
    8.5280   -0.9648   23.2342 C   0  0  1  0  0  0
    7.7817    0.3270   23.6563 C   0  0  0  0  0  0
    8.0488   -1.5852   24.5721 C   0  0  0  0  0  0
    5.7866   -0.8841   26.7975 C   0  0  0  0  0  0
    7.2915   -2.5974   21.9940 O   0  0  0  0  0  0
    6.8852   -0.5770   24.5297 C   0  0  1  0  0  0
    6.5493   -0.0374   25.8270 C   0  0  0  0  0  0
    5.1328    0.3010   26.1707 C   0  0  0  0  0  0
    9.4085   -2.3861   18.9573 C   0  0  0  0  0  0
   10.7151   -2.6377   19.6649 C   0  0  0  0  0  0
    6.9145   -2.1099   17.6941 N   0  0  0  0  0  0
    7.9197   -2.7795   17.1231 C   0  0  0  0  0  0
    9.1652   -2.9316   17.7035 C   0  0  0  0  0  0
    9.0878   -0.2630   20.9501 H   0  0  0  0  0  0
    6.3371   -0.9840   19.3232 H   0  0  0  0  0  0
    9.6080   -0.8181   23.2251 H   0  0  0  0  0  0
    7.1826    0.6452   22.8031 H   0  0  0  0  0  0
    8.4412    0.8731   24.3307 H   0  0  0  0  0  0
    8.7374   -1.2491   25.3473 H   0  0  0  0  0  0
    7.6331   -2.5660   24.3411 H   0  0  0  0  0  0
    6.1213   -0.4249   27.7276 H   0  0  0  0  0  0
    5.4354   -1.6569   26.1137 H   0  0  0  0  0  0
    6.0164   -0.9567   23.9921 H   0  0  0  0  0  0
    7.3036    0.6130   26.2698 H   0  0  0  0  0  0
    5.3159    1.0348   26.9557 H   0  0  0  0  0  0
    4.6300   -0.1971   25.3418 H   0  0  0  0  0  0
   11.3745   -3.2151   19.0170 H   0  0  0  0  0  0
   11.1870   -1.6854   19.9070 H   0  0  0  0  0  0
   10.5301   -3.1947   20.5834 H   0  0  0  0  0  0
    7.7820   -3.2381   16.1551 H   0  0  0  0  0  0
    9.9466   -3.4706   17.1883 H   0  0  0  0  0  0
  1  3  1  0  0  0
  1  4  1  0  0  0
  1 18  1  0  0  0
  2  3  1  0  0  0
  2 15  2  0  0  0
  2 19  1  0  0  0
  3 13  2  0  0  0
  4  5  1  0  0  0
  4  9  2  0  0  0
  5  6  1  0  0  0
  5  7  1  0  0  0
  5 20  1  0  0  0
  6 10  1  0  0  0
  6 21  1  0  0  0
  6 22  1  0  0  0
  7 10  1  0  0  0
  7 23  1  0  0  0
  7 24  1  0  0  0
  8 11  1  0  0  0
  8 12  1  0  0  0
  8 25  1  0  0  0
  8 26  1  0  0  0
 10 11  1  0  0  0
 10 27  1  0  0  0
 11 12  1  0  0  0
 11 28  1  0  0  0
 12 29  1  0  0  0
 12 30  1  0  0  0
 13 14  1  0  0  0
 13 17  1  0  0  0
 14 31  1  0  0  0
 14 32  1  0  0  0
 14 33  1  0  0  0
 15 16  1  0  0  0
 16 17  2  0  0  0
 16 34  1  0  0  0
 17 35  1  0  0  0
M  END
> <s_m_entry_id>
206

> <s_m_entry_name>
7GCA_ligand.1

> <s_pdb_PDB_TITLE>
GROUP DEPOSITION SARS-COV-2 MAIN PROTEASE IN COMPLEX WITH INHIBITORS FROM THE COVID MOONSHOT -- CRYSTAL STRUCTURE OF SARS-COV-2 MAIN PROTEASE IN COMPLEX WITH MAT-POS-590AC91E-18 (MPRO-X10559)

> <s_pdb_PDB_ID>
7GCA

> <s_m_Source_File>
7GCA_ligand.sdf

> <s_user_Compound_ID>
MAT-POS-590ac91e-18

> <s_user_Monomer-Dimer>
Monomer

> <s_user_xcode>
x10559

$$$$
