7GCB_ligand
                    3D
 Schrodinger Suite 2021-2.
 31 32  0  0  1  0            999 V2000
    8.8077   -0.8016   20.3314 N   0  0  0  0  0  0
    7.2381   -1.3411   18.5320 C   0  0  0  0  0  0
    8.4840   -1.4847   19.1434 C   0  0  0  0  0  0
    8.3897   -1.1812   21.5503 C   0  0  0  0  0  0
    9.0885   -0.4720   22.6923 C   0  0  0  0  0  0
    8.4157   -0.8480   23.9876 C   0  0  0  0  0  0
    8.2208   -2.3172   25.8938 C   0  0  0  0  0  0
    7.1716   -0.3165   24.2967 C   0  0  0  0  0  0
    8.9440   -1.8321   24.8134 C   0  0  0  0  0  0
    6.8798   -2.0145   17.4346 N   0  0  0  0  0  0
    6.4639   -0.7918   25.3790 C   0  0  0  0  0  0
    9.4182   -2.3702   18.5830 C   0  0  0  0  0  0
    6.9626   -1.8079   26.1750 C   0  0  0  0  0  0
   10.7599   -2.6248   19.2216 C   0  0  0  0  0  0
    9.0401   -3.0481   17.4304 C   0  0  0  0  0  0
    7.5536   -2.0644   21.7422 O   0  0  0  0  0  0
    7.7796   -2.8512   16.9047 C   0  0  0  0  0  0
    4.6627    0.1371   25.8833 I   0  0  0  0  0  0
    9.3863    0.0255   20.2967 H   0  0  0  0  0  0
    6.5092   -0.6595   18.9450 H   0  0  0  0  0  0
    9.0193    0.6061   22.5468 H   0  0  0  0  0  0
   10.1342   -0.7780   22.7242 H   0  0  0  0  0  0
    8.6380   -3.0936   26.5180 H   0  0  0  0  0  0
    6.7550    0.4724   23.6880 H   0  0  0  0  0  0
    9.9292   -2.2291   24.6181 H   0  0  0  0  0  0
    6.3920   -2.2043   27.0018 H   0  0  0  0  0  0
   11.3188   -3.3420   18.6204 H   0  0  0  0  0  0
   11.3172   -1.6900   19.2823 H   0  0  0  0  0  0
   10.6152   -3.0267   20.2244 H   0  0  0  0  0  0
    9.7316   -3.7249   16.9506 H   0  0  0  0  0  0
    7.5345   -3.4166   16.0177 H   0  0  0  0  0  0
  1  3  1  0  0  0
  1  4  1  0  0  0
  1 19  1  0  0  0
  2  3  1  0  0  0
  2 10  2  0  0  0
  2 20  1  0  0  0
  3 12  2  0  0  0
  4  5  1  0  0  0
  4 16  2  0  0  0
  5  6  1  0  0  0
  5 21  1  0  0  0
  5 22  1  0  0  0
  6  8  1  0  0  0
  6  9  2  0  0  0
  7  9  1  0  0  0
  7 13  2  0  0  0
  7 23  1  0  0  0
  8 11  2  0  0  0
  8 24  1  0  0  0
  9 25  1  0  0  0
 10 17  1  0  0  0
 11 13  1  0  0  0
 11 18  1  0  0  0
 12 14  1  0  0  0
 12 15  1  0  0  0
 13 26  1  0  0  0
 14 27  1  0  0  0
 14 28  1  0  0  0
 14 29  1  0  0  0
 15 17  2  0  0  0
 15 30  1  0  0  0
 17 31  1  0  0  0
M  END
> <s_m_entry_id>
207

> <s_m_entry_name>
7GCB_ligand.1

> <s_pdb_PDB_TITLE>
GROUP DEPOSITION SARS-COV-2 MAIN PROTEASE IN COMPLEX WITH INHIBITORS FROM THE COVID MOONSHOT -- CRYSTAL STRUCTURE OF SARS-COV-2 MAIN PROTEASE IN COMPLEX WITH JAN-GHE-83B26C96-13 (MPRO-X10565)

> <s_pdb_PDB_ID>
7GCB

> <s_m_Source_File>
7GCB_ligand.sdf

> <s_user_Compound_ID>
JAN-GHE-83b26c96-13

> <s_user_Monomer-Dimer>
Monomer

> <s_user_xcode>
x10565

$$$$
