7GCC_ligand
                    3D
 Schrodinger Suite 2021-2.
 38 40  0  0  1  0            999 V2000
    8.8088   -0.7919   20.4230 N   0  0  0  0  0  0
    7.3182   -1.4052   18.5923 C   0  0  0  0  0  0
    8.5513   -1.5025   19.2350 C   0  0  0  0  0  0
    8.3166   -1.1188   21.6321 C   0  0  0  0  0  0
    8.8560   -0.2640   22.7621 C   0  0  0  0  0  0
    8.3772   -0.7936   24.0894 C   0  0  0  0  0  0
    8.5794   -2.3500   25.9169 C   0  0  0  0  0  0
    7.1217   -0.4360   24.5647 C   0  0  0  0  0  0
    4.9070    0.8634   26.3748 C   0  0  0  0  0  0
    7.5366   -2.0555   21.8275 O   0  0  0  0  0  0
    7.0049   -2.1097   17.5017 N   0  0  0  0  0  0
    7.9444   -2.9243   17.0046 C   0  0  0  0  0  0
    9.2026   -3.0691   17.5592 C   0  0  0  0  0  0
    9.5287   -2.3680   18.7127 C   0  0  0  0  0  0
   10.8485   -2.5958   19.4049 C   0  0  0  0  0  0
    6.5791   -1.0315   25.6956 C   0  0  0  0  0  0
    5.2206   -0.5902   26.1879 C   0  0  0  0  0  0
    4.2652    0.1165   25.2736 C   0  0  0  0  0  0
    7.3132   -2.0027   26.3587 C   0  0  0  0  0  0
    9.1113   -1.7392   24.7932 C   0  0  0  0  0  0
    9.4005    0.0264   20.4038 H   0  0  0  0  0  0
    6.5617   -0.7356   18.9739 H   0  0  0  0  0  0
    8.5131    0.7630   22.6359 H   0  0  0  0  0  0
    9.9457   -0.2761   22.7381 H   0  0  0  0  0  0
    9.1510   -3.0963   26.4486 H   0  0  0  0  0  0
    6.5456    0.3202   24.0523 H   0  0  0  0  0  0
    5.7455    1.2956   25.8286 H   0  0  0  0  0  0
    4.1216    0.7785   27.1258 H   0  0  0  0  0  0
    7.7373   -3.5130   16.1232 H   0  0  0  0  0  0
    9.9250   -3.7245   17.0954 H   0  0  0  0  0  0
   11.4463   -3.2998   18.8260 H   0  0  0  0  0  0
   11.3831   -1.6496   19.4895 H   0  0  0  0  0  0
   10.6717   -3.0028   20.4005 H   0  0  0  0  0  0
    4.7549   -1.2580   26.9127 H   0  0  0  0  0  0
    4.9513    0.3710   24.4658 H   0  0  0  0  0  0
    3.3274   -0.1461   25.7631 H   0  0  0  0  0  0
    6.8913   -2.4897   27.2254 H   0  0  0  0  0  0
   10.1058   -2.0040   24.4655 H   0  0  0  0  0  0
  1  3  1  0  0  0
  1  4  1  0  0  0
  1 21  1  0  0  0
  2  3  1  0  0  0
  2 11  2  0  0  0
  2 22  1  0  0  0
  3 14  2  0  0  0
  4  5  1  0  0  0
  4 10  2  0  0  0
  5  6  1  0  0  0
  5 23  1  0  0  0
  5 24  1  0  0  0
  6  8  1  0  0  0
  6 20  2  0  0  0
  7 19  2  0  0  0
  7 20  1  0  0  0
  7 25  1  0  0  0
  8 16  2  0  0  0
  8 26  1  0  0  0
  9 17  1  0  0  0
  9 18  1  0  0  0
  9 27  1  0  0  0
  9 28  1  0  0  0
 11 12  1  0  0  0
 12 13  2  0  0  0
 12 29  1  0  0  0
 13 14  1  0  0  0
 13 30  1  0  0  0
 14 15  1  0  0  0
 15 31  1  0  0  0
 15 32  1  0  0  0
 15 33  1  0  0  0
 16 17  1  0  0  0
 16 19  1  0  0  0
 17 18  1  0  0  0
 17 34  1  0  0  0
 18 35  1  0  0  0
 18 36  1  0  0  0
 19 37  1  0  0  0
 20 38  1  0  0  0
M  END
> <s_m_entry_id>
208

> <s_m_entry_name>
7GCC_ligand.1

> <s_pdb_PDB_TITLE>
GROUP DEPOSITION SARS-COV-2 MAIN PROTEASE IN COMPLEX WITH INHIBITORS FROM THE COVID MOONSHOT -- CRYSTAL STRUCTURE OF SARS-COV-2 MAIN PROTEASE IN COMPLEX WITH ALP-POS-95B75B4D-4 (MPRO-X10566)

> <s_pdb_PDB_ID>
7GCC

> <s_m_Source_File>
7GCC_ligand.sdf

> <s_user_Compound_ID>
ALP-POS-95b75b4d-4

> <s_user_Monomer-Dimer>
Monomer

> <s_user_xcode>
x10566

$$$$
