7GCD_ligand
                    3D
 Schrodinger Suite 2021-2.
 35 37  0  0  1  0            999 V2000
    8.3813   -1.1025   21.2158 N   0  0  0  0  0  0
    7.1434   -1.4064   19.1221 C   0  0  0  0  0  0
    8.3022   -1.5718   19.8839 C   0  0  0  0  0  0
    7.8089   -1.7348   22.2568 C   0  0  0  0  0  0
    8.0007   -1.0589   23.6021 C   0  0  0  0  0  0
    6.8425   -1.3760   24.5500 C   0  0  1  0  0  0
    6.1063    0.6503   25.6330 C   0  0  2  0  0  0
    7.2216   -1.4653   26.0299 C   0  0  0  0  0  0
    7.0196   -1.8562   17.8696 N   0  0  0  0  0  0
    9.3968   -2.2538   19.3137 C   0  0  0  0  0  0
    5.6642    0.3544   27.0306 C   0  0  0  0  0  0
    9.2599   -2.6991   18.0026 C   0  0  0  0  0  0
    5.7170   -0.3402   24.5332 C   0  0  0  0  0  0
    7.0238   -0.0421   26.5512 C   0  0  2  0  0  0
   10.6544   -2.5414   20.0958 C   0  0  0  0  0  0
    7.1736   -2.7766   22.1470 O   0  0  0  0  0  0
    8.0734   -2.4813   17.3289 C   0  0  0  0  0  0
    8.8866   -0.2529   21.4226 H   0  0  0  0  0  0
    6.2903   -0.8935   19.5411 H   0  0  0  0  0  0
    8.0683    0.0197   23.4599 H   0  0  0  0  0  0
    8.9368   -1.3959   24.0474 H   0  0  0  0  0  0
    6.4196   -2.3358   24.2536 H   0  0  0  0  0  0
    6.3198    1.6831   25.3576 H   0  0  0  0  0  0
    8.2733   -1.7383   26.1170 H   0  0  0  0  0  0
    6.5295   -2.1356   26.5397 H   0  0  0  0  0  0
    5.1435   -0.5846   26.8428 H   0  0  0  0  0  0
    5.9238    1.3080   27.4904 H   0  0  0  0  0  0
   10.0779   -3.2113   17.5180 H   0  0  0  0  0  0
    4.7775   -0.8242   24.7998 H   0  0  0  0  0  0
    5.7130    0.1723   23.5712 H   0  0  0  0  0  0
    7.8898    0.4999   26.9310 H   0  0  0  0  0  0
   11.3632   -3.0743   19.4620 H   0  0  0  0  0  0
   11.0988   -1.6032   20.4280 H   0  0  0  0  0  0
   10.4110   -3.1548   20.9634 H   0  0  0  0  0  0
    8.0226   -2.8457   16.3135 H   0  0  0  0  0  0
  1  3  1  0  0  0
  1  4  1  0  0  0
  1 18  1  0  0  0
  2  3  1  0  0  0
  2  9  2  0  0  0
  2 19  1  0  0  0
  3 10  2  0  0  0
  4  5  1  0  0  0
  4 16  2  0  0  0
  5  6  1  0  0  0
  5 20  1  0  0  0
  5 21  1  0  0  0
  6  8  1  0  0  0
  6 13  1  0  0  0
  6 22  1  0  0  0
  7 11  1  0  0  0
  7 13  1  0  0  0
  7 14  1  0  0  0
  7 23  1  0  0  0
  8 14  1  0  0  0
  8 24  1  0  0  0
  8 25  1  0  0  0
  9 17  1  0  0  0
 10 12  1  0  0  0
 10 15  1  0  0  0
 11 14  1  0  0  0
 11 26  1  0  0  0
 11 27  1  0  0  0
 12 17  2  0  0  0
 12 28  1  0  0  0
 13 29  1  0  0  0
 13 30  1  0  0  0
 14 31  1  0  0  0
 15 32  1  0  0  0
 15 33  1  0  0  0
 15 34  1  0  0  0
 17 35  1  0  0  0
M  END
> <s_m_entry_id>
209

> <s_m_entry_name>
7GCD_ligand.1

> <s_pdb_PDB_TITLE>
GROUP DEPOSITION SARS-COV-2 MAIN PROTEASE IN COMPLEX WITH INHIBITORS FROM THE COVID MOONSHOT -- CRYSTAL STRUCTURE OF SARS-COV-2 MAIN PROTEASE IN COMPLEX WITH MAT-POS-590AC91E-23 (MPRO-X10575)

> <s_pdb_PDB_ID>
7GCD

> <s_m_Source_File>
7GCD_ligand.sdf

> <s_user_Compound_ID>
MAT-POS-590ac91e-23

> <s_user_Monomer-Dimer>
Monomer

> <s_user_xcode>
x10575

$$$$
