7GCE_ligand
                    3D
 Schrodinger Suite 2021-2.
 34 35  0  0  1  0            999 V2000
    8.2296   -0.8662   21.1123 N   0  0  0  0  0  0
    7.0363   -1.4281   19.0322 C   0  0  0  0  0  0
    8.1871   -1.4635   19.8212 C   0  0  0  0  0  0
    7.6542   -1.4372   22.1874 C   0  0  0  0  0  0
    7.6733   -0.6038   23.4498 C   0  0  0  0  0  0
    7.2200   -1.4117   24.6880 C   0  0  0  0  0  0
    8.1174   -0.6579   26.9154 C   0  0  0  0  0  0
    5.9922    1.0748   27.3301 C   0  0  0  0  0  0
    5.0314    0.2980   25.3351 F   0  0  0  0  0  0
    6.0586    0.2709   26.2151 C   0  0  0  0  0  0
    7.0229    1.0091   28.2529 C   0  0  0  0  0  0
    8.0748    0.1380   28.0533 C   0  0  0  0  0  0
    7.1082   -0.5888   25.9545 C   0  0  0  0  0  0
    7.1289   -2.5458   22.1553 O   0  0  0  0  0  0
    9.3189   -2.1464   19.3197 C   0  0  0  0  0  0
   10.5726   -2.3227   20.1392 C   0  0  0  0  0  0
    6.9462   -1.9931   17.8231 N   0  0  0  0  0  0
    8.0338   -2.6132   17.3526 C   0  0  0  0  0  0
    9.2178   -2.7129   18.0527 C   0  0  0  0  0  0
    8.7031    0.0160   21.2452 H   0  0  0  0  0  0
    6.1512   -0.9234   19.3904 H   0  0  0  0  0  0
    7.0223    0.2612   23.3231 H   0  0  0  0  0  0
    8.6800   -0.2204   23.6158 H   0  0  0  0  0  0
    7.9117   -2.2377   24.8536 H   0  0  0  0  0  0
    6.2609   -1.8855   24.4790 H   0  0  0  0  0  0
    8.9396   -1.3419   26.7653 H   0  0  0  0  0  0
    5.1501    1.7366   27.4693 H   0  0  0  0  0  0
    7.0039    1.6398   29.1294 H   0  0  0  0  0  0
    8.8664    0.0763   28.7854 H   0  0  0  0  0  0
   11.3117   -2.8753   19.5591 H   0  0  0  0  0  0
   10.9755   -1.3448   20.4027 H   0  0  0  0  0  0
   10.3380   -2.8756   21.0488 H   0  0  0  0  0  0
    8.0141   -3.0703   16.3743 H   0  0  0  0  0  0
   10.0642   -3.2274   17.6221 H   0  0  0  0  0  0
  1  3  1  0  0  0
  1  4  1  0  0  0
  1 20  1  0  0  0
  2  3  1  0  0  0
  2 17  2  0  0  0
  2 21  1  0  0  0
  3 15  2  0  0  0
  4  5  1  0  0  0
  4 14  2  0  0  0
  5  6  1  0  0  0
  5 22  1  0  0  0
  5 23  1  0  0  0
  6 13  1  0  0  0
  6 24  1  0  0  0
  6 25  1  0  0  0
  7 12  1  0  0  0
  7 13  2  0  0  0
  7 26  1  0  0  0
  8 10  2  0  0  0
  8 11  1  0  0  0
  8 27  1  0  0  0
  9 10  1  0  0  0
 10 13  1  0  0  0
 11 12  2  0  0  0
 11 28  1  0  0  0
 12 29  1  0  0  0
 15 16  1  0  0  0
 15 19  1  0  0  0
 16 30  1  0  0  0
 16 31  1  0  0  0
 16 32  1  0  0  0
 17 18  1  0  0  0
 18 19  2  0  0  0
 18 33  1  0  0  0
 19 34  1  0  0  0
M  END
> <s_m_entry_id>
210

> <s_m_entry_name>
7GCE_ligand.1

> <s_pdb_PDB_TITLE>
GROUP DEPOSITION SARS-COV-2 MAIN PROTEASE IN COMPLEX WITH INHIBITORS FROM THE COVID MOONSHOT -- CRYSTAL STRUCTURE OF SARS-COV-2 MAIN PROTEASE IN COMPLEX WITH BEN-DND-93268D01-7 (MPRO-X10598)

> <s_pdb_PDB_ID>
7GCE

> <s_m_Source_File>
7GCE_ligand.sdf

> <s_user_Compound_ID>
BEN-DND-93268d01-7

> <s_user_Monomer-Dimer>
Monomer

> <s_user_xcode>
x10598

$$$$
