7GCF_ligand
                    3D
 Schrodinger Suite 2021-2.
 26 27  0  0  1  0            999 V2000
    8.7937   -1.9692   19.1310 N   0  0  0  0  0  0
    8.4369   -3.0133   17.3069 N   0  0  0  0  0  0
    7.7166   -0.9582   23.7771 C   0  0  0  0  0  0
    8.5526   -0.6340   22.5585 C   0  0  0  0  0  0
    8.1735   -1.4869   21.3627 C   0  0  0  0  0  0
    9.7998   -2.8578   18.9105 C   0  0  0  0  0  0
    7.8950   -2.0699   18.0955 C   0  0  0  0  0  0
    6.8407   -1.4710   17.9879 O   0  0  0  0  0  0
    9.6190   -3.5118   17.8091 N   0  0  0  0  0  0
    8.6930   -1.0785   20.1867 N   0  0  0  0  0  0
    7.4780   -2.4936   21.4882 O   0  0  0  0  0  0
    6.5785   -0.2093   24.0604 C   0  0  0  0  0  0
    5.7452   -0.5959   25.0924 C   0  0  0  0  0  0
    4.3026    0.3339   25.4039 Cl  0  0  0  0  0  0
    8.0161   -2.0518   24.5811 C   0  0  0  0  0  0
    7.1701   -2.4242   25.6169 C   0  0  0  0  0  0
    6.0159   -1.7016   25.8699 C   0  0  0  0  0  0
    7.9745   -3.2819   16.4501 H   0  0  0  0  0  0
    9.6067   -0.7845   22.7915 H   0  0  0  0  0  0
    8.4315    0.4193   22.3055 H   0  0  0  0  0  0
   10.6107   -2.9421   19.6188 H   0  0  0  0  0  0
    9.0082   -0.1255   20.0752 H   0  0  0  0  0  0
    6.3505    0.6690   23.4749 H   0  0  0  0  0  0
    8.9155   -2.6226   24.4032 H   0  0  0  0  0  0
    7.4109   -3.2805   26.2294 H   0  0  0  0  0  0
    5.3342   -1.9882   26.6571 H   0  0  0  0  0  0
  1  6  1  0  0  0
  1  7  1  0  0  0
  1 10  1  0  0  0
  2  7  1  0  0  0
  2  9  1  0  0  0
  2 18  1  0  0  0
  3  4  1  0  0  0
  3 12  1  0  0  0
  3 15  2  0  0  0
  4  5  1  0  0  0
  4 19  1  0  0  0
  4 20  1  0  0  0
  5 10  1  0  0  0
  5 11  2  0  0  0
  6  9  2  0  0  0
  6 21  1  0  0  0
  7  8  2  0  0  0
 10 22  1  0  0  0
 12 13  2  0  0  0
 12 23  1  0  0  0
 13 14  1  0  0  0
 13 17  1  0  0  0
 15 16  1  0  0  0
 15 24  1  0  0  0
 16 17  2  0  0  0
 16 25  1  0  0  0
 17 26  1  0  0  0
M  END
> <s_m_entry_id>
211

> <s_m_entry_name>
7GCF_ligand.1

> <s_pdb_PDB_TITLE>
GROUP DEPOSITION SARS-COV-2 MAIN PROTEASE IN COMPLEX WITH INHIBITORS FROM THE COVID MOONSHOT -- CRYSTAL STRUCTURE OF SARS-COV-2 MAIN PROTEASE IN COMPLEX WITH JAN-GHE-5A013BED-4 (MPRO-X10604)

> <s_pdb_PDB_ID>
7GCF

> <s_m_Source_File>
7GCF_ligand.sdf

> <s_user_Compound_ID>
JAN-GHE-5a013bed-4

> <s_user_Monomer-Dimer>
Monomer

> <s_user_xcode>
x10604

$$$$
