7GCG_ligand
                    3D
 Schrodinger Suite 2021-2.
 29 30  0  0  1  0            999 V2000
   10.4765    0.4916   24.3274 N   0  0  0  0  0  0
    9.5667    2.7079   24.9236 C   0  0  0  0  0  0
   10.6063    1.7733   24.9371 C   0  0  0  0  0  0
    8.0331   -0.7071   24.3897 C   0  0  0  0  0  0
    8.3127   -1.8021   25.1913 C   0  0  0  0  0  0
    7.2968   -2.3554   25.9528 C   0  0  0  0  0  0
    5.7786   -0.7078   25.1397 C   0  0  0  0  0  0
    9.2904   -0.0508   23.3463 S   0  0  0  0  0  0
    6.0181   -1.8177   25.9244 C   0  0  0  0  0  0
    9.6555    3.9281   25.4662 N   0  0  0  0  0  0
   11.8110    2.1280   25.5681 C   0  0  0  0  0  0
    6.7674   -0.1415   24.3598 C   0  0  0  0  0  0
    9.8707   -1.1400   22.6214 O   0  0  0  0  0  0
   12.9712    1.1702   25.6614 C   0  0  0  0  0  0
   11.8935    3.3986   26.1304 C   0  0  0  0  0  0
    8.7461    1.0611   22.6296 O   0  0  0  0  0  0
   10.8105    4.2508   26.0548 C   0  0  0  0  0  0
    4.2001    0.0248   25.1658 Cl  0  0  0  0  0  0
   11.1792   -0.2164   24.4855 H   0  0  0  0  0  0
    8.6249    2.4613   24.4561 H   0  0  0  0  0  0
    9.3115   -2.2123   25.2161 H   0  0  0  0  0  0
    7.4961   -3.2141   26.5769 H   0  0  0  0  0  0
    5.2300   -2.2674   26.5102 H   0  0  0  0  0  0
    6.5754    0.7200   23.7373 H   0  0  0  0  0  0
   13.7971    1.6492   26.1873 H   0  0  0  0  0  0
   12.6632    0.2776   26.2060 H   0  0  0  0  0  0
   13.2934    0.8902   24.6585 H   0  0  0  0  0  0
   12.8018    3.7132   26.6228 H   0  0  0  0  0  0
   10.9335    5.2248   26.5051 H   0  0  0  0  0  0
  1  3  1  0  0  0
  1  8  1  0  0  0
  1 19  1  0  0  0
  2  3  1  0  0  0
  2 10  2  0  0  0
  2 20  1  0  0  0
  3 11  2  0  0  0
  4  5  1  0  0  0
  4  8  1  0  0  0
  4 12  2  0  0  0
  5  6  2  0  0  0
  5 21  1  0  0  0
  6  9  1  0  0  0
  6 22  1  0  0  0
  7  9  2  0  0  0
  7 12  1  0  0  0
  7 18  1  0  0  0
  8 13  2  0  0  0
  8 16  2  0  0  0
  9 23  1  0  0  0
 10 17  1  0  0  0
 11 14  1  0  0  0
 11 15  1  0  0  0
 12 24  1  0  0  0
 14 25  1  0  0  0
 14 26  1  0  0  0
 14 27  1  0  0  0
 15 17  2  0  0  0
 15 28  1  0  0  0
 17 29  1  0  0  0
M  END
> <s_m_entry_id>
212

> <s_m_entry_name>
7GCG_ligand.1

> <s_pdb_PDB_TITLE>
GROUP DEPOSITION SARS-COV-2 MAIN PROTEASE IN COMPLEX WITH INHIBITORS FROM THE COVID MOONSHOT -- CRYSTAL STRUCTURE OF SARS-COV-2 MAIN PROTEASE IN COMPLEX WITH JAN-GHE-83B26C96-21 (MPRO-X10606)

> <s_pdb_PDB_ID>
7GCG

> <s_m_Source_File>
7GCG_ligand.sdf

> <s_user_Compound_ID>
JAN-GHE-83b26c96-21

> <s_user_Monomer-Dimer>
Monomer

> <s_user_xcode>
x10606

$$$$
