7GCI_ligand
                    3D
 Schrodinger Suite 2021-2.
 30 31  0  0  1  0            999 V2000
    8.5721   -1.7076   21.5138 N   0  0  0  0  0  0
    7.1452   -1.6977   19.4904 C   0  0  0  0  0  0
    8.3788   -1.8908   20.1237 C   0  0  0  0  0  0
    7.6546   -1.6637   22.4874 C   0  0  0  0  0  0
    7.9814   -0.8228   23.7372 C   0  0  1  0  0  0
    9.4645   -0.4130   23.9431 C   0  0  0  0  0  0
    7.2241    0.5097   23.7792 C   0  0  0  0  0  0
    7.1882   -2.3085   25.7307 N   0  0  0  0  0  0
    7.5476   -1.6318   24.8903 C   0  0  0  0  0  0
    8.0288    1.3491   24.5999 O   0  0  0  0  0  0
    9.3802    1.0769   24.2241 C   0  0  0  0  0  0
    6.6775   -2.3901   22.5034 O   0  0  0  0  0  0
    9.4841   -2.2353   19.3361 C   0  0  0  0  0  0
   10.8444   -2.4805   19.9389 C   0  0  0  0  0  0
    6.9431   -1.8928   18.1829 N   0  0  0  0  0  0
    7.9932   -2.2869   17.4564 C   0  0  0  0  0  0
    9.2620   -2.4547   17.9790 C   0  0  0  0  0  0
    9.5047   -1.5884   21.8827 H   0  0  0  0  0  0
    6.2892   -1.3730   20.0633 H   0  0  0  0  0  0
   10.0143   -0.5738   23.0158 H   0  0  0  0  0  0
    9.8602   -0.9231   24.8213 H   0  0  0  0  0  0
    6.2556    0.3596   24.2563 H   0  0  0  0  0  0
    7.1743    0.9284   22.7740 H   0  0  0  0  0  0
    9.6229    1.6311   23.3175 H   0  0  0  0  0  0
   10.0440    1.3278   25.0515 H   0  0  0  0  0  0
   11.5521   -2.7335   19.1494 H   0  0  0  0  0  0
   11.1817   -1.5810   20.4539 H   0  0  0  0  0  0
   10.7842   -3.3045   20.6499 H   0  0  0  0  0  0
    7.8743   -2.4924   16.4028 H   0  0  0  0  0  0
   10.0790   -2.7547   17.3396 H   0  0  0  0  0  0
  1  3  1  0  0  0
  1  4  1  0  0  0
  1 18  1  0  0  0
  2  3  1  0  0  0
  2 15  2  0  0  0
  2 19  1  0  0  0
  3 13  2  0  0  0
  4  5  1  0  0  0
  4 12  2  0  0  0
  5  6  1  0  0  0
  5  7  1  0  0  0
  5  9  1  0  0  0
  6 11  1  0  0  0
  6 20  1  0  0  0
  6 21  1  0  0  0
  7 10  1  0  0  0
  7 22  1  0  0  0
  7 23  1  0  0  0
  8  9  3  0  0  0
 10 11  1  0  0  0
 11 24  1  0  0  0
 11 25  1  0  0  0
 13 14  1  0  0  0
 13 17  1  0  0  0
 14 26  1  0  0  0
 14 27  1  0  0  0
 14 28  1  0  0  0
 15 16  1  0  0  0
 16 17  2  0  0  0
 16 29  1  0  0  0
 17 30  1  0  0  0
M  END
> <s_m_entry_id>
213

> <s_m_entry_name>
7GCI_ligand.1

> <s_pdb_PDB_TITLE>
GROUP DEPOSITION SARS-COV-2 MAIN PROTEASE IN COMPLEX WITH INHIBITORS FROM THE COVID MOONSHOT -- CRYSTAL STRUCTURE OF SARS-COV-2 MAIN PROTEASE IN COMPLEX WITH MAT-POS-590AC91E-27 (MPRO-X10610)

> <s_pdb_PDB_ID>
7GCI

> <s_m_Source_File>
7GCI_ligand.sdf

> <s_user_Compound_ID>
MAT-POS-590ac91e-27

> <s_user_Monomer-Dimer>
Monomer

> <s_user_xcode>
x10610

$$$$
