7GCJ_ligand
                    3D
 Schrodinger Suite 2021-2.
 35 37  0  0  1  0            999 V2000
    7.8045   -0.7413   21.4205 N   0  0  0  0  0  0
    6.8406   -1.4290   19.2520 C   0  0  0  0  0  0
    7.9328   -1.2924   20.1144 C   0  0  0  0  0  0
    7.3310   -1.4500   22.4647 C   0  0  0  0  0  0
    7.1618   -0.6528   23.7392 C   0  0  1  0  0  0
    6.1063   -1.1509   24.7187 C   0  0  1  0  0  0
    6.0512    0.7773   26.4911 C   0  0  0  0  0  0
    7.5560   -1.3537   25.0324 C   0  0  2  0  0  0
    7.0413   -2.6439   22.4017 O   0  0  0  0  0  0
    8.1790   -0.5247   26.1604 C   0  0  0  0  0  0
    7.1606    0.0044   27.1751 C   0  0  0  0  0  0
    5.2932   -0.0908   25.4790 C   0  0  0  0  0  0
    9.1887   -1.7692   19.6752 C   0  0  0  0  0  0
   10.4347   -1.6165   20.5140 C   0  0  0  0  0  0
    6.9149   -1.9875   18.0381 N   0  0  0  0  0  0
    8.1092   -2.4371   17.6412 C   0  0  0  0  0  0
    9.2475   -2.3650   18.4164 C   0  0  0  0  0  0
    8.0734    0.2168   21.5930 H   0  0  0  0  0  0
    5.8665   -1.0732   19.5536 H   0  0  0  0  0  0
    7.3249    0.4235   23.6826 H   0  0  0  0  0  0
    5.5573   -2.0416   24.4130 H   0  0  0  0  0  0
    6.4736    1.6434   25.9814 H   0  0  0  0  0  0
    5.3546    1.1521   27.2410 H   0  0  0  0  0  0
    7.9284   -2.3728   24.9279 H   0  0  0  0  0  0
    8.7306    0.3121   25.7319 H   0  0  0  0  0  0
    8.9276   -1.1241   26.6785 H   0  0  0  0  0  0
    6.7324   -0.8311   27.7289 H   0  0  0  0  0  0
    7.6654    0.6521   27.8918 H   0  0  0  0  0  0
    4.4537   -0.5739   25.9792 H   0  0  0  0  0  0
    4.7866    0.5547   24.7616 H   0  0  0  0  0  0
   11.2837   -2.0519   19.9870 H   0  0  0  0  0  0
   10.6240   -0.5585   20.6952 H   0  0  0  0  0  0
   10.2974   -2.1288   21.4663 H   0  0  0  0  0  0
    8.2201   -2.8864   16.6654 H   0  0  0  0  0  0
   10.1813   -2.7674   18.0525 H   0  0  0  0  0  0
  1  3  1  0  0  0
  1  4  1  0  0  0
  1 18  1  0  0  0
  2  3  1  0  0  0
  2 15  2  0  0  0
  2 19  1  0  0  0
  3 13  2  0  0  0
  4  5  1  0  0  0
  4  9  2  0  0  0
  5  6  1  0  0  0
  5  8  1  0  0  0
  5 20  1  0  0  0
  6  8  1  0  0  0
  6 12  1  0  0  0
  6 21  1  0  0  0
  7 11  1  0  0  0
  7 12  1  0  0  0
  7 22  1  0  0  0
  7 23  1  0  0  0
  8 10  1  0  0  0
  8 24  1  0  0  0
 10 11  1  0  0  0
 10 25  1  0  0  0
 10 26  1  0  0  0
 11 27  1  0  0  0
 11 28  1  0  0  0
 12 29  1  0  0  0
 12 30  1  0  0  0
 13 14  1  0  0  0
 13 17  1  0  0  0
 14 31  1  0  0  0
 14 32  1  0  0  0
 14 33  1  0  0  0
 15 16  1  0  0  0
 16 17  2  0  0  0
 16 34  1  0  0  0
 17 35  1  0  0  0
M  END
> <s_m_entry_id>
214

> <s_m_entry_name>
7GCJ_ligand.1

> <s_pdb_PDB_TITLE>
GROUP DEPOSITION SARS-COV-2 MAIN PROTEASE IN COMPLEX WITH INHIBITORS FROM THE COVID MOONSHOT -- CRYSTAL STRUCTURE OF SARS-COV-2 MAIN PROTEASE IN COMPLEX WITH MAT-POS-590AC91E-19 (MPRO-X10626)

> <s_pdb_PDB_ID>
7GCJ

> <s_m_Source_File>
7GCJ_ligand.sdf

> <s_user_Compound_ID>
MAT-POS-590ac91e-19

> <s_user_Monomer-Dimer>
Monomer

> <s_user_xcode>
x10626

$$$$
