7GCK_ligand
                    3D
 Schrodinger Suite 2021-2.
 37 39  0  0  1  0            999 V2000
    8.7938   -0.8968   20.2220 N   0  0  0  0  0  0
    7.2611   -1.5163   18.4290 C   0  0  0  0  0  0
    8.5125   -1.6097   19.0359 C   0  0  0  0  0  0
    8.3039   -1.2331   21.4345 C   0  0  0  0  0  0
    8.7573   -0.3310   22.5659 C   0  0  0  0  0  0
    9.7773   -2.0290   23.9682 C   0  0  0  0  0  0
    7.8173   -1.6909   25.9169 C   0  0  0  0  0  0
    5.5102   -0.3412   25.3528 C   0  0  0  0  0  0
    7.7163   -0.9827   24.7262 C   0  0  0  0  0  0
    6.9185   -2.2322   17.3518 N   0  0  0  0  0  0
    8.7735   -1.0956   23.8072 N   0  0  0  0  0  0
    9.4671   -2.4862   18.4984 C   0  0  0  0  0  0
    6.7576   -1.7605   26.7976 C   0  0  0  0  0  0
   10.6782   -2.2147   23.1557 O   0  0  0  0  0  0
    9.1103   -3.1955   17.3581 C   0  0  0  0  0  0
    9.7465   -2.8728   25.2190 C   0  0  0  0  0  0
    5.5842   -1.1016   26.4957 C   0  0  0  0  0  0
    6.5576   -0.2606   24.4563 C   0  0  0  0  0  0
   10.7957   -2.7299   19.1679 C   0  0  0  0  0  0
    7.5909   -2.2088   21.6460 O   0  0  0  0  0  0
    8.9840   -2.3059   26.2925 O   0  0  0  0  0  0
    7.8431   -3.0541   16.8353 C   0  0  0  0  0  0
    4.0630    0.5793   25.0506 Cl  0  0  0  0  0  0
    9.3929   -0.0842   20.1928 H   0  0  0  0  0  0
    6.5167   -0.8428   18.8272 H   0  0  0  0  0  0
    8.0647    0.5050   22.6635 H   0  0  0  0  0  0
    9.7602    0.0399   22.3549 H   0  0  0  0  0  0
    6.8519   -2.3267   27.7124 H   0  0  0  0  0  0
    9.8247   -3.8537   16.8860 H   0  0  0  0  0  0
   10.7666   -3.0548   25.5573 H   0  0  0  0  0  0
    9.3530   -3.8605   24.9788 H   0  0  0  0  0  0
    4.7277   -1.1794   27.1489 H   0  0  0  0  0  0
    6.4652    0.3519   23.5716 H   0  0  0  0  0  0
   11.3745   -3.4420   18.5797 H   0  0  0  0  0  0
   11.3436   -1.7905   19.2420 H   0  0  0  0  0  0
   10.6311   -3.1336   20.1669 H   0  0  0  0  0  0
    7.6108   -3.6486   15.9641 H   0  0  0  0  0  0
  1  3  1  0  0  0
  1  4  1  0  0  0
  1 24  1  0  0  0
  2  3  1  0  0  0
  2 10  2  0  0  0
  2 25  1  0  0  0
  3 12  2  0  0  0
  4  5  1  0  0  0
  4 20  2  0  0  0
  5 11  1  0  0  0
  5 26  1  0  0  0
  5 27  1  0  0  0
  6 11  1  0  0  0
  6 14  2  0  0  0
  6 16  1  0  0  0
  7  9  1  0  0  0
  7 13  2  0  0  0
  7 21  1  0  0  0
  8 17  2  0  0  0
  8 18  1  0  0  0
  8 23  1  0  0  0
  9 11  1  0  0  0
  9 18  2  0  0  0
 10 22  1  0  0  0
 12 15  1  0  0  0
 12 19  1  0  0  0
 13 17  1  0  0  0
 13 28  1  0  0  0
 15 22  2  0  0  0
 15 29  1  0  0  0
 16 21  1  0  0  0
 16 30  1  0  0  0
 16 31  1  0  0  0
 17 32  1  0  0  0
 18 33  1  0  0  0
 19 34  1  0  0  0
 19 35  1  0  0  0
 19 36  1  0  0  0
 22 37  1  0  0  0
M  END
> <s_m_entry_id>
215

> <s_m_entry_name>
7GCK_ligand.1

> <s_pdb_PDB_TITLE>
GROUP DEPOSITION SARS-COV-2 MAIN PROTEASE IN COMPLEX WITH INHIBITORS FROM THE COVID MOONSHOT -- CRYSTAL STRUCTURE OF SARS-COV-2 MAIN PROTEASE IN COMPLEX WITH BAR-COM-0F94FC3D-48 (MPRO-X10638)

> <s_pdb_PDB_ID>
7GCK

> <s_m_Source_File>
7GCK_ligand.sdf

> <s_user_Compound_ID>
BAR-COM-0f94fc3d-48

> <s_user_Monomer-Dimer>
Monomer

> <s_user_xcode>
x10638

$$$$
