7GCL_ligand
                    3D
 Schrodinger Suite 2021-2.
 36 38  0  0  1  0            999 V2000
    6.7318   -2.0537   17.5887 N   0  0  0  0  0  0
    7.7141   -2.7489   16.9971 C   0  0  0  0  0  0
    6.9950   -1.4880   18.7704 C   0  0  0  0  0  0
    8.2235   -1.6074   19.4099 C   0  0  0  0  0  0
    8.0025   -1.7679   21.8376 C   0  0  0  0  0  0
    8.4008   -1.0842   23.1437 C   0  0  1  0  0  0
    7.7098   -1.8794   24.9751 C   0  0  0  0  0  0
    5.2375   -0.7665   25.3343 C   0  0  0  0  0  0
    7.2328   -0.9384   24.1082 C   0  0  0  0  0  0
   10.4860   -2.5012   19.4232 N   0  0  0  0  0  0
    8.4082   -1.1205   20.7228 N   0  0  0  0  0  0
   11.7096   -2.8121   18.9115 C   0  0  0  0  0  0
    6.9172   -2.2938   26.0400 C   0  0  0  0  0  0
    7.3755   -2.8265   21.8160 O   0  0  0  0  0  0
    9.2425   -2.3280   18.7658 C   0  0  0  0  0  0
    4.0384   -0.1671   25.5521 F   0  0  0  0  0  0
    9.0282   -2.0225   24.2349 C   0  0  0  0  0  0
    5.6556   -1.7466   26.2165 C   0  0  0  0  0  0
    5.9937   -0.3318   24.2675 C   0  0  0  0  0  0
   12.8206   -2.8645   19.9175 C   0  0  0  0  0  0
   11.9050   -3.0335   17.7149 O   0  0  0  0  0  0
    8.9787   -2.9077   17.5277 C   0  0  0  0  0  0
    7.5390   -3.2276   16.0449 H   0  0  0  0  0  0
    6.2354   -0.9067   19.2719 H   0  0  0  0  0  0
    8.9581   -0.1592   22.9957 H   0  0  0  0  0  0
   10.3757   -2.3582   20.4169 H   0  0  0  0  0  0
    8.8697   -0.2346   20.8727 H   0  0  0  0  0  0
    7.2846   -3.0408   26.7280 H   0  0  0  0  0  0
    9.7651   -1.4313   24.7785 H   0  0  0  0  0  0
    9.0512   -3.0284   23.8157 H   0  0  0  0  0  0
    5.0045   -2.0663   27.0167 H   0  0  0  0  0  0
    5.6124    0.4386   23.6136 H   0  0  0  0  0  0
   13.7541   -3.1191   19.4157 H   0  0  0  0  0  0
   12.9212   -1.8919   20.3993 H   0  0  0  0  0  0
   12.5950   -3.6204   20.6696 H   0  0  0  0  0  0
    9.7259   -3.4673   16.9846 H   0  0  0  0  0  0
  1  2  1  0  0  0
  1  3  2  0  0  0
  2 22  2  0  0  0
  2 23  1  0  0  0
  3  4  1  0  0  0
  3 24  1  0  0  0
  4 11  1  0  0  0
  4 15  2  0  0  0
  5  6  1  0  0  0
  5 11  1  0  0  0
  5 14  2  0  0  0
  6  9  1  0  0  0
  6 17  1  0  0  0
  6 25  1  0  0  0
  7  9  1  0  0  0
  7 13  2  0  0  0
  7 17  1  0  0  0
  8 16  1  0  0  0
  8 18  2  0  0  0
  8 19  1  0  0  0
  9 19  2  0  0  0
 10 12  1  0  0  0
 10 15  1  0  0  0
 10 26  1  0  0  0
 11 27  1  0  0  0
 12 20  1  0  0  0
 12 21  2  0  0  0
 13 18  1  0  0  0
 13 28  1  0  0  0
 15 22  1  0  0  0
 17 29  1  0  0  0
 17 30  1  0  0  0
 18 31  1  0  0  0
 19 32  1  0  0  0
 20 33  1  0  0  0
 20 34  1  0  0  0
 20 35  1  0  0  0
 22 36  1  0  0  0
M  END
> <s_m_entry_id>
216

> <s_m_entry_name>
7GCL_ligand.1

> <s_pdb_PDB_TITLE>
GROUP DEPOSITION SARS-COV-2 MAIN PROTEASE IN COMPLEX WITH INHIBITORS FROM THE COVID MOONSHOT -- CRYSTAL STRUCTURE OF SARS-COV-2 MAIN PROTEASE IN COMPLEX WITH BAR-COM-0F94FC3D-59 (MPRO-X10645)

> <s_pdb_PDB_ID>
7GCL

> <s_m_Source_File>
7GCL_ligand.sdf

> <s_user_Compound_ID>
BAR-COM-0f94fc3d-59

> <s_user_Monomer-Dimer>
Monomer

> <s_user_xcode>
x10645

$$$$
