7GCN_ligand
                    3D
 Schrodinger Suite 2021-2.
 35 37  0  0  1  0            999 V2000
    8.6927   -0.7637   20.3053 N   0  0  0  0  0  0
    7.1644   -1.4876   18.5359 C   0  0  0  0  0  0
    8.4190   -1.5186   19.1470 C   0  0  0  0  0  0
    8.2964   -1.1157   21.5393 C   0  0  0  0  0  0
    8.8252   -0.2112   22.6389 C   0  0  0  0  0  0
    9.5077   -1.6143   24.6121 C   0  0  0  0  0  0
    7.5765   -1.7080   25.7399 C   0  0  0  0  0  0
    5.1409   -0.4885   25.2300 C   0  0  0  0  0  0
    7.4020   -0.8640   24.6299 C   0  0  0  0  0  0
    6.8674   -2.1943   17.4396 N   0  0  0  0  0  0
    8.5993   -0.8328   23.9370 N   0  0  0  0  0  0
    9.4259   -2.3310   18.5980 C   0  0  0  0  0  0
    6.4813   -1.9469   26.5685 C   0  0  0  0  0  0
    9.1163   -3.0294   17.4373 C   0  0  0  0  0  0
    8.9334   -2.1608   25.7058 C   0  0  0  0  0  0
    5.2620   -1.3471   26.3115 C   0  0  0  0  0  0
    6.1918   -0.2405   24.3659 C   0  0  0  0  0  0
   10.7450   -2.5458   19.2939 C   0  0  0  0  0  0
    7.5999   -2.1018   21.7841 O   0  0  0  0  0  0
    7.8440   -2.9400   16.9059 C   0  0  0  0  0  0
    3.6359    0.3414   24.9752 Cl  0  0  0  0  0  0
    9.2156    0.0975   20.2349 H   0  0  0  0  0  0
    6.3783   -0.8720   18.9476 H   0  0  0  0  0  0
    8.3080    0.7475   22.6005 H   0  0  0  0  0  0
    9.8935   -0.0503   22.4944 H   0  0  0  0  0  0
   10.5165   -1.7140   24.2395 H   0  0  0  0  0  0
    6.5810   -2.6049   27.4191 H   0  0  0  0  0  0
    9.8681   -3.6374   16.9562 H   0  0  0  0  0  0
    9.5094   -2.8056   26.3530 H   0  0  0  0  0  0
    4.4088   -1.5423   26.9443 H   0  0  0  0  0  0
    6.0529    0.4188   23.5219 H   0  0  0  0  0  0
   11.3701   -3.2062   18.6930 H   0  0  0  0  0  0
   11.2485   -1.5877   19.4230 H   0  0  0  0  0  0
   10.5718   -2.9990   20.2700 H   0  0  0  0  0  0
    7.6570   -3.5144   16.0106 H   0  0  0  0  0  0
  1  3  1  0  0  0
  1  4  1  0  0  0
  1 22  1  0  0  0
  2  3  1  0  0  0
  2 10  2  0  0  0
  2 23  1  0  0  0
  3 12  2  0  0  0
  4  5  1  0  0  0
  4 19  2  0  0  0
  5 11  1  0  0  0
  5 24  1  0  0  0
  5 25  1  0  0  0
  6 11  1  0  0  0
  6 15  2  0  0  0
  6 26  1  0  0  0
  7  9  2  0  0  0
  7 13  1  0  0  0
  7 15  1  0  0  0
  8 16  1  0  0  0
  8 17  2  0  0  0
  8 21  1  0  0  0
  9 11  1  0  0  0
  9 17  1  0  0  0
 10 20  1  0  0  0
 12 14  1  0  0  0
 12 18  1  0  0  0
 13 16  2  0  0  0
 13 27  1  0  0  0
 14 20  2  0  0  0
 14 28  1  0  0  0
 15 29  1  0  0  0
 16 30  1  0  0  0
 17 31  1  0  0  0
 18 32  1  0  0  0
 18 33  1  0  0  0
 18 34  1  0  0  0
 20 35  1  0  0  0
M  END
> <s_m_entry_id>
217

> <s_m_entry_name>
7GCN_ligand.1

> <s_pdb_PDB_TITLE>
GROUP DEPOSITION SARS-COV-2 MAIN PROTEASE IN COMPLEX WITH INHIBITORS FROM THE COVID MOONSHOT -- CRYSTAL STRUCTURE OF SARS-COV-2 MAIN PROTEASE IN COMPLEX WITH BAR-COM-0F94FC3D-41 (MPRO-X10679)

> <s_pdb_PDB_ID>
7GCN

> <s_m_Source_File>
7GCN_ligand.sdf

> <s_user_Compound_ID>
BAR-COM-0f94fc3d-41

> <s_user_Monomer-Dimer>
Monomer

> <s_user_xcode>
x10679

$$$$
