7GCO_ligand
                    3D
 Schrodinger Suite 2021-2.
 37 38  0  0  1  0            999 V2000
    8.6626   -3.4009   17.2221 N   0  0  0  0  0  0
    5.4382    0.1364   25.6194 C   0  0  0  0  0  0
    6.4620    0.4621   24.7422 C   0  0  0  0  0  0
    7.3441   -0.5236   24.3281 C   0  0  0  0  0  0
    8.7715    0.9715   23.0682 C   0  0  0  0  0  0
    9.6938    0.8626   21.8915 C   0  0  0  0  0  0
    9.2489   -1.2589   18.8013 C   0  0  0  0  0  0
    7.6331   -2.5400   17.5190 C   0  0  0  0  0  0
    9.2203   -0.1181   20.9236 N   0  0  0  0  0  0
    7.2181   -1.8356   24.8274 C   0  0  0  0  0  0
   10.2732   -2.2042   18.4608 C   0  0  0  0  0  0
    8.3109   -0.3553   23.3686 O   0  0  0  0  0  0
    6.4945   -2.8076   17.1145 O   0  0  0  0  0  0
    6.1915   -2.1442   25.7115 C   0  0  0  0  0  0
    9.5604   -0.0580   19.6362 C   0  0  0  0  0  0
    9.9345   -3.2422   17.6716 C   0  0  0  0  0  0
    7.9729   -1.4317   18.3335 C   0  0  0  0  0  0
    8.0249   -4.0917   24.7601 C   0  0  0  0  0  0
    8.1473   -2.7254   24.3605 O   0  0  0  0  0  0
   10.1478    0.9092   19.1546 O   0  0  0  0  0  0
    5.3014   -1.1548   26.0943 C   0  0  0  0  0  0
    8.4941   -4.2074   16.6380 H   0  0  0  0  0  0
    4.7383    0.8948   25.9379 H   0  0  0  0  0  0
    6.5670    1.4768   24.3876 H   0  0  0  0  0  0
    7.9206    1.5999   22.8051 H   0  0  0  0  0  0
    9.3197    1.3672   23.9232 H   0  0  0  0  0  0
   10.6891    0.5812   22.2355 H   0  0  0  0  0  0
    9.7818    1.8357   21.4084 H   0  0  0  0  0  0
    8.6178   -0.8588   21.2527 H   0  0  0  0  0  0
   11.2774   -2.0705   18.8350 H   0  0  0  0  0  0
    6.0925   -3.1491   26.0944 H   0  0  0  0  0  0
   10.6972   -3.9559   17.3972 H   0  0  0  0  0  0
    7.2042   -0.7158   18.5844 H   0  0  0  0  0  0
    8.8298   -4.6751   24.3129 H   0  0  0  0  0  0
    8.0874   -4.1601   25.8461 H   0  0  0  0  0  0
    7.0641   -4.4837   24.4266 H   0  0  0  0  0  0
    4.4951   -1.3991   26.7700 H   0  0  0  0  0  0
  1  8  1  0  0  0
  1 16  1  0  0  0
  1 22  1  0  0  0
  2  3  1  0  0  0
  2 21  2  0  0  0
  2 23  1  0  0  0
  3  4  2  0  0  0
  3 24  1  0  0  0
  4 10  1  0  0  0
  4 12  1  0  0  0
  5  6  1  0  0  0
  5 12  1  0  0  0
  5 25  1  0  0  0
  5 26  1  0  0  0
  6  9  1  0  0  0
  6 27  1  0  0  0
  6 28  1  0  0  0
  7 11  1  0  0  0
  7 15  1  0  0  0
  7 17  2  0  0  0
  8 13  2  0  0  0
  8 17  1  0  0  0
  9 15  1  0  0  0
  9 29  1  0  0  0
 10 14  2  0  0  0
 10 19  1  0  0  0
 11 16  2  0  0  0
 11 30  1  0  0  0
 14 21  1  0  0  0
 14 31  1  0  0  0
 15 20  2  0  0  0
 16 32  1  0  0  0
 17 33  1  0  0  0
 18 19  1  0  0  0
 18 34  1  0  0  0
 18 35  1  0  0  0
 18 36  1  0  0  0
 21 37  1  0  0  0
M  END
> <s_m_entry_id>
218

> <s_m_entry_name>
7GCO_ligand.1

> <s_pdb_PDB_TITLE>
GROUP DEPOSITION SARS-COV-2 MAIN PROTEASE IN COMPLEX WITH INHIBITORS FROM THE COVID MOONSHOT -- CRYSTAL STRUCTURE OF SARS-COV-2 MAIN PROTEASE IN COMPLEX WITH BEN-DND-7E92B6CA-1 (MPRO-X10700)

> <s_pdb_PDB_ID>
7GCO

> <s_m_Source_File>
7GCO_ligand.sdf

> <s_user_Compound_ID>
BEN-DND-7e92b6ca-1

> <s_user_Monomer-Dimer>
Monomer

> <s_user_xcode>
x10700

$$$$
