7GCQ_ligand
                    3D
 Schrodinger Suite 2021-2.
 30 31  0  0  1  0            999 V2000
    8.4745   -1.0033   20.5761 N   0  0  0  0  0  0
    7.0604   -1.5280   18.6471 C   0  0  0  0  0  0
    8.2790   -1.6160   19.3224 C   0  0  0  0  0  0
    7.9718   -1.4981   21.7220 C   0  0  0  0  0  0
    8.4275   -0.7805   22.9773 C   0  0  0  0  0  0
    7.4304   -0.9444   24.0986 C   0  0  0  0  0  0
    5.6355   -1.3845   26.1266 C   0  0  0  0  0  0
    7.6763   -1.7922   25.1647 C   0  0  0  0  0  0
    6.8187   -2.1484   17.4860 N   0  0  0  0  0  0
    6.2157   -0.2724   24.0849 C   0  0  0  0  0  0
    6.8118   -2.0218   26.1629 N   0  0  0  0  0  0
    9.3113   -2.3919   18.7627 C   0  0  0  0  0  0
    5.3229   -0.4854   25.1110 C   0  0  0  0  0  0
   10.6310   -2.5900   19.4621 C   0  0  0  0  0  0
    9.0522   -3.0175   17.5481 C   0  0  0  0  0  0
    7.2211   -2.4657   21.7666 O   0  0  0  0  0  0
    7.8147   -2.8675   16.9536 C   0  0  0  0  0  0
    3.8651    0.4623   25.1782 Cl  0  0  0  0  0  0
    9.0137   -0.1519   20.6435 H   0  0  0  0  0  0
    6.2560   -0.9369   19.0594 H   0  0  0  0  0  0
    8.5596    0.2797   22.7614 H   0  0  0  0  0  0
    9.3939   -1.1756   23.2905 H   0  0  0  0  0  0
    4.9009   -1.5625   26.8980 H   0  0  0  0  0  0
    8.6162   -2.3202   25.2291 H   0  0  0  0  0  0
    5.9828    0.4057   23.2772 H   0  0  0  0  0  0
   11.2757   -3.2214   18.8507 H   0  0  0  0  0  0
   11.1102   -1.6231   19.6156 H   0  0  0  0  0  0
   10.4633   -3.0690   20.4267 H   0  0  0  0  0  0
    9.8164   -3.6165   17.0753 H   0  0  0  0  0  0
    7.6727   -3.3696   16.0080 H   0  0  0  0  0  0
  1  3  1  0  0  0
  1  4  1  0  0  0
  1 19  1  0  0  0
  2  3  1  0  0  0
  2  9  2  0  0  0
  2 20  1  0  0  0
  3 12  2  0  0  0
  4  5  1  0  0  0
  4 16  2  0  0  0
  5  6  1  0  0  0
  5 21  1  0  0  0
  5 22  1  0  0  0
  6  8  1  0  0  0
  6 10  2  0  0  0
  7 11  1  0  0  0
  7 13  2  0  0  0
  7 23  1  0  0  0
  8 11  2  0  0  0
  8 24  1  0  0  0
  9 17  1  0  0  0
 10 13  1  0  0  0
 10 25  1  0  0  0
 12 14  1  0  0  0
 12 15  1  0  0  0
 13 18  1  0  0  0
 14 26  1  0  0  0
 14 27  1  0  0  0
 14 28  1  0  0  0
 15 17  2  0  0  0
 15 29  1  0  0  0
 17 30  1  0  0  0
M  END
> <s_m_entry_id>
219

> <s_m_entry_name>
7GCQ_ligand.1

> <s_pdb_PDB_TITLE>
GROUP DEPOSITION SARS-COV-2 MAIN PROTEASE IN COMPLEX WITH INHIBITORS FROM THE COVID MOONSHOT -- CRYSTAL STRUCTURE OF SARS-COV-2 MAIN PROTEASE IN COMPLEX WITH TRY-UNI-2EDDB1FF-2 (MPRO-X10723)

> <s_pdb_PDB_ID>
7GCQ

> <s_m_Source_File>
7GCQ_ligand.sdf

> <s_user_Compound_ID>
TRY-UNI-2eddb1ff-2

> <s_user_Monomer-Dimer>
Monomer

> <s_user_xcode>
x10723

$$$$
