7GCS_ligand
                    3D
 Schrodinger Suite 2021-2.
 35 37  0  0  1  0            999 V2000
    8.6216   -0.7533   20.4146 N   0  0  0  0  0  0
    7.1845   -1.4515   18.5557 C   0  0  0  0  0  0
    8.4050   -1.4961   19.2320 C   0  0  0  0  0  0
    8.1369   -1.0746   21.6308 C   0  0  0  0  0  0
    8.5561   -0.1223   22.7384 C   0  0  0  0  0  0
    9.2962   -1.4884   24.7194 C   0  0  0  0  0  0
    7.3838   -1.6065   25.8794 C   0  0  0  0  0  0
    4.9129   -0.5188   25.3545 C   0  0  0  0  0  0
    7.1749   -0.7861   24.7576 C   0  0  0  0  0  0
    6.9335   -2.1529   17.4455 N   0  0  0  0  0  0
    8.3599   -0.7422   24.0440 N   0  0  0  0  0  0
    9.4280   -2.3218   18.7272 C   0  0  0  0  0  0
    6.2971   -1.8872   26.7105 C   0  0  0  0  0  0
    9.1563   -3.0386   17.5654 C   0  0  0  0  0  0
    3.7087    0.0768   25.1469 F   0  0  0  0  0  0
    8.7530   -2.0274   25.8333 C   0  0  0  0  0  0
    5.0474   -1.3578   26.4374 C   0  0  0  0  0  0
    5.9390   -0.2128   24.4895 C   0  0  0  0  0  0
   10.7513   -2.4753   19.4325 C   0  0  0  0  0  0
    7.4448   -2.0674   21.8558 O   0  0  0  0  0  0
    7.9156   -2.9297   16.9702 C   0  0  0  0  0  0
    9.1774    0.0895   20.3868 H   0  0  0  0  0  0
    6.3847   -0.8272   18.9256 H   0  0  0  0  0  0
    7.9627    0.7899   22.6767 H   0  0  0  0  0  0
    9.6073    0.1383   22.6146 H   0  0  0  0  0  0
   10.3012   -1.5720   24.3330 H   0  0  0  0  0  0
    6.4279   -2.5219   27.5745 H   0  0  0  0  0  0
    9.9143   -3.6758   17.1344 H   0  0  0  0  0  0
    9.3552   -2.6446   26.4836 H   0  0  0  0  0  0
    4.1894   -1.5892   27.0511 H   0  0  0  0  0  0
    5.7608    0.4446   23.6513 H   0  0  0  0  0  0
   11.3875   -3.1573   18.8682 H   0  0  0  0  0  0
   11.2385   -1.5032   19.5078 H   0  0  0  0  0  0
   10.5863   -2.8768   20.4324 H   0  0  0  0  0  0
    7.7573   -3.5132   16.0754 H   0  0  0  0  0  0
  1  3  1  0  0  0
  1  4  1  0  0  0
  1 22  1  0  0  0
  2  3  1  0  0  0
  2 10  2  0  0  0
  2 23  1  0  0  0
  3 12  2  0  0  0
  4  5  1  0  0  0
  4 20  2  0  0  0
  5 11  1  0  0  0
  5 24  1  0  0  0
  5 25  1  0  0  0
  6 11  1  0  0  0
  6 16  2  0  0  0
  6 26  1  0  0  0
  7  9  2  0  0  0
  7 13  1  0  0  0
  7 16  1  0  0  0
  8 15  1  0  0  0
  8 17  1  0  0  0
  8 18  2  0  0  0
  9 11  1  0  0  0
  9 18  1  0  0  0
 10 21  1  0  0  0
 12 14  1  0  0  0
 12 19  1  0  0  0
 13 17  2  0  0  0
 13 27  1  0  0  0
 14 21  2  0  0  0
 14 28  1  0  0  0
 16 29  1  0  0  0
 17 30  1  0  0  0
 18 31  1  0  0  0
 19 32  1  0  0  0
 19 33  1  0  0  0
 19 34  1  0  0  0
 21 35  1  0  0  0
M  END
> <s_m_entry_id>
220

> <s_m_entry_name>
7GCS_ligand.1

> <s_pdb_PDB_TITLE>
GROUP DEPOSITION SARS-COV-2 MAIN PROTEASE IN COMPLEX WITH INHIBITORS FROM THE COVID MOONSHOT -- CRYSTAL STRUCTURE OF SARS-COV-2 MAIN PROTEASE IN COMPLEX WITH BAR-COM-0F94FC3D-18 (MPRO-X10733)

> <s_pdb_PDB_ID>
7GCS

> <s_m_Source_File>
7GCS_ligand.sdf

> <s_user_Compound_ID>
BAR-COM-0f94fc3d-18

> <s_user_Monomer-Dimer>
Monomer

> <s_user_xcode>
x10733

$$$$
