7GCT_ligand
                    3D
 Schrodinger Suite 2021-2.
 40 42  0  0  1  0            999 V2000
    8.3354   -0.8636   20.8368 N   0  0  0  0  0  0
    7.0711   -1.4268   18.8144 C   0  0  0  0  0  0
    8.2544   -1.4504   19.5541 C   0  0  0  0  0  0
    7.8728   -1.4313   21.9685 C   0  0  0  0  0  0
    8.0414   -0.5819   23.2154 C   0  0  0  0  0  0
    7.0336   -0.9322   24.2868 C   0  0  0  0  0  0
    4.9320   -0.5146   25.3974 C   0  0  0  0  0  0
    5.7012   -4.7826   25.3954 C   0  0  2  0  0  0
    5.3198   -6.7608   25.8217 C   0  0  0  0  0  0
    6.9273   -2.0405   17.6337 N   0  0  0  0  0  0
    6.3949   -6.0830   25.3823 N   0  0  0  0  0  0
    9.3650   -2.1415   19.0325 C   0  0  0  0  0  0
    5.0245   -1.7264   26.0610 C   0  0  0  0  0  0
    6.2361   -3.8169   26.3214 O   0  0  0  0  0  0
    9.2077   -2.7608   17.7962 C   0  0  0  0  0  0
    7.1434   -2.1318   24.9821 C   0  0  0  0  0  0
    5.9288   -0.1233   24.5175 C   0  0  0  0  0  0
    6.1278   -2.5343   25.8345 C   0  0  0  0  0  0
    4.5572   -5.4834   26.1332 C   0  0  0  0  0  0
   10.6574   -2.2720   19.7972 C   0  0  0  0  0  0
    7.3590   -2.5454   22.0001 O   0  0  0  0  0  0
    5.0900   -7.9633   25.9150 O   0  0  0  0  0  0
    7.9911   -2.6896   17.1458 C   0  0  0  0  0  0
    8.7634    0.0441   20.9508 H   0  0  0  0  0  0
    6.2102   -0.8934   19.1896 H   0  0  0  0  0  0
    7.9401    0.4712   22.9530 H   0  0  0  0  0  0
    9.0493   -0.7123   23.6093 H   0  0  0  0  0  0
    4.0811    0.1291   25.5647 H   0  0  0  0  0  0
    5.4433   -4.3868   24.4130 H   0  0  0  0  0  0
    7.2572   -6.5728   25.1907 H   0  0  0  0  0  0
    4.2440   -2.0295   26.7431 H   0  0  0  0  0  0
   10.0344   -3.2937   17.3501 H   0  0  0  0  0  0
    8.0204   -2.7498   24.8576 H   0  0  0  0  0  0
    5.8379    0.8248   24.0082 H   0  0  0  0  0  0
    3.6949   -5.4625   25.4668 H   0  0  0  0  0  0
    4.7002   -5.2838   27.1952 H   0  0  0  0  0  0
   11.3737   -2.8428   19.2063 H   0  0  0  0  0  0
   11.0622   -1.2804   19.9993 H   0  0  0  0  0  0
   10.4721   -2.7873   20.7396 H   0  0  0  0  0  0
    7.9253   -3.1950   16.1936 H   0  0  0  0  0  0
  1  3  1  0  0  0
  1  4  1  0  0  0
  1 24  1  0  0  0
  2  3  1  0  0  0
  2 10  2  0  0  0
  2 25  1  0  0  0
  3 12  2  0  0  0
  4  5  1  0  0  0
  4 21  2  0  0  0
  5  6  1  0  0  0
  5 26  1  0  0  0
  5 27  1  0  0  0
  6 16  1  0  0  0
  6 17  2  0  0  0
  7 13  2  0  0  0
  7 17  1  0  0  0
  7 28  1  0  0  0
  8 11  1  0  0  0
  8 14  1  0  0  0
  8 19  1  0  0  0
  8 29  1  0  0  0
  9 11  1  0  0  0
  9 19  1  0  0  0
  9 22  2  0  0  0
 10 23  1  0  0  0
 11 30  1  0  0  0
 12 15  1  0  0  0
 12 20  1  0  0  0
 13 18  1  0  0  0
 13 31  1  0  0  0
 14 18  1  0  0  0
 15 23  2  0  0  0
 15 32  1  0  0  0
 16 18  2  0  0  0
 16 33  1  0  0  0
 17 34  1  0  0  0
 19 35  1  0  0  0
 19 36  1  0  0  0
 20 37  1  0  0  0
 20 38  1  0  0  0
 20 39  1  0  0  0
 23 40  1  0  0  0
M  END
> <s_m_entry_id>
221

> <s_m_entry_name>
7GCT_ligand.1

> <s_pdb_PDB_TITLE>
GROUP DEPOSITION SARS-COV-2 MAIN PROTEASE IN COMPLEX WITH INHIBITORS FROM THE COVID MOONSHOT -- CRYSTAL STRUCTURE OF SARS-COV-2 MAIN PROTEASE IN COMPLEX WITH BRU-LEF-C49414A7-1 (MPRO-X10756)

> <s_pdb_PDB_ID>
7GCT

> <s_m_Source_File>
7GCT_ligand.sdf

> <s_user_Compound_ID>
BRU-LEF-c49414a7-1

> <s_user_Monomer-Dimer>
Monomer

> <s_user_xcode>
x10756

$$$$
