7GCU_ligand
                    3D
 Schrodinger Suite 2021-2.
 37 39  0  0  1  0            999 V2000
    8.5836   -0.8667   20.7629 N   0  0  0  0  0  0
    7.1000   -1.4454   18.9032 C   0  0  0  0  0  0
    8.3465   -1.5007   19.5263 C   0  0  0  0  0  0
    8.1382   -1.3915   21.9194 C   0  0  0  0  0  0
    8.6587   -0.7129   23.1992 C   0  0  0  0  0  0
   10.1641   -0.9773   23.6071 C   0  0  0  0  0  0
    9.0381    0.8142   23.0119 C   0  0  0  0  0  0
    6.8020   -2.2688   26.1539 C   0  0  0  0  0  0
    5.4449   -0.5521   25.2089 C   0  0  0  0  0  0
    6.8237   -2.0878   17.7634 N   0  0  0  0  0  0
    9.3755   -2.2581   18.9302 C   0  0  0  0  0  0
    7.6052   -0.9861   24.2695 C   0  0  0  0  0  0
   11.5364    0.9825   22.8482 O   0  0  0  0  0  0
    9.0822   -2.8939   17.7301 C   0  0  0  0  0  0
    6.4155   -0.2642   24.2699 C   0  0  0  0  0  0
   10.4987    0.4127   23.0989 C   0  0  0  0  0  0
    7.7920   -1.9842   25.2228 C   0  0  0  0  0  0
    5.6138   -1.5520   26.1501 C   0  0  0  0  0  0
   10.7175   -2.4463   19.5947 C   0  0  0  0  0  0
    7.3962   -2.3658   21.9752 O   0  0  0  0  0  0
    7.8111   -2.7912   17.1959 C   0  0  0  0  0  0
    3.9885    0.3987   25.2256 Cl  0  0  0  0  0  0
    9.0984    0.0017   20.7947 H   0  0  0  0  0  0
    6.3026   -0.8633   19.3412 H   0  0  0  0  0  0
   10.5743   -1.6927   22.8943 H   0  0  0  0  0  0
   10.2171   -0.9483   24.6954 H   0  0  0  0  0  0
    8.7858    1.3287   23.9392 H   0  0  0  0  0  0
    8.8333    1.0759   21.9738 H   0  0  0  0  0  0
    6.9555   -3.0500   26.8837 H   0  0  0  0  0  0
    9.8449   -3.4639   17.2205 H   0  0  0  0  0  0
    6.2485    0.5164   23.5425 H   0  0  0  0  0  0
    8.7185   -2.5390   25.2331 H   0  0  0  0  0  0
    4.8437   -1.7794   26.8724 H   0  0  0  0  0  0
   11.3545   -3.0625   18.9602 H   0  0  0  0  0  0
   11.1877   -1.4748   19.7466 H   0  0  0  0  0  0
   10.5808   -2.9378   20.5580 H   0  0  0  0  0  0
    7.6354   -3.3182   16.2697 H   0  0  0  0  0  0
  1  3  1  0  0  0
  1  4  1  0  0  0
  1 23  1  0  0  0
  2  3  1  0  0  0
  2 10  2  0  0  0
  2 24  1  0  0  0
  3 11  2  0  0  0
  4  5  1  0  0  0
  4 20  2  0  0  0
  5  6  1  0  0  0
  5  7  1  0  0  0
  5 12  1  0  0  0
  6 16  1  0  0  0
  6 25  1  0  0  0
  6 26  1  0  0  0
  7 16  1  0  0  0
  7 27  1  0  0  0
  7 28  1  0  0  0
  8 17  1  0  0  0
  8 18  2  0  0  0
  8 29  1  0  0  0
  9 15  2  0  0  0
  9 18  1  0  0  0
  9 22  1  0  0  0
 10 21  1  0  0  0
 11 14  1  0  0  0
 11 19  1  0  0  0
 12 15  1  0  0  0
 12 17  2  0  0  0
 13 16  2  0  0  0
 14 21  2  0  0  0
 14 30  1  0  0  0
 15 31  1  0  0  0
 17 32  1  0  0  0
 18 33  1  0  0  0
 19 34  1  0  0  0
 19 35  1  0  0  0
 19 36  1  0  0  0
 21 37  1  0  0  0
M  END
> <s_m_entry_id>
222

> <s_m_entry_name>
7GCU_ligand.1

> <s_pdb_PDB_TITLE>
GROUP DEPOSITION SARS-COV-2 MAIN PROTEASE IN COMPLEX WITH INHIBITORS FROM THE COVID MOONSHOT -- CRYSTAL STRUCTURE OF SARS-COV-2 MAIN PROTEASE IN COMPLEX WITH BAR-COM-0F94FC3D-25 (MPRO-X10787)

> <s_pdb_PDB_ID>
7GCU

> <s_m_Source_File>
7GCU_ligand.sdf

> <s_user_Compound_ID>
BAR-COM-0f94fc3d-25

> <s_user_Monomer-Dimer>
Monomer

> <s_user_xcode>
x10787

$$$$
