7GCV_ligand
                    3D
 Schrodinger Suite 2021-2.
 40 42  0  0  1  0            999 V2000
    8.3971   -1.0550   20.5002 N   0  0  0  0  0  0
    7.0284   -1.5398   18.5370 C   0  0  0  0  0  0
    8.2467   -1.6091   19.2085 C   0  0  0  0  0  0
    8.0092   -1.6844   21.6312 C   0  0  0  0  0  0
    8.3746   -0.9638   22.9135 C   0  0  0  0  0  0
    7.4043   -1.2808   24.0270 C   0  0  0  0  0  0
    5.4518   -0.7281   25.2927 C   0  0  0  0  0  0
    5.4763   -4.9624   25.4302 C   0  0  2  0  0  0
    5.2857   -7.0092   25.4689 C   0  0  0  0  0  0
    6.7876   -2.1811   17.3894 N   0  0  0  0  0  0
    6.0483   -6.1647   24.7493 N   0  0  0  0  0  0
    9.2929   -2.3674   18.6429 C   0  0  0  0  0  0
    5.4447   -1.9702   25.8963 C   0  0  0  0  0  0
    6.4485   -4.1351   26.0850 O   0  0  0  0  0  0
    9.0297   -3.0234   17.4438 C   0  0  0  0  0  0
    7.4327   -2.5258   24.6482 C   0  0  0  0  0  0
    6.4101   -0.3721   24.3677 C   0  0  0  0  0  0
    6.4467   -2.8648   25.5592 C   0  0  0  0  0  0
    4.9417   -5.9361   26.4853 C   0  0  0  0  0  0
   10.6277   -2.5253   19.3242 C   0  0  0  0  0  0
    7.4290   -2.7660   21.6372 O   0  0  0  0  0  0
    4.9716   -8.1813   25.2931 O   0  0  0  0  0  0
    7.7815   -2.9115   16.8667 C   0  0  0  0  0  0
    4.2445    0.4387   25.7463 Cl  0  0  0  0  0  0
    8.8134   -0.1417   20.6126 H   0  0  0  0  0  0
    6.2219   -0.9461   18.9414 H   0  0  0  0  0  0
    8.3834    0.1115   22.7353 H   0  0  0  0  0  0
    9.3813   -1.2512   23.2168 H   0  0  0  0  0  0
    4.7147   -4.4258   24.8643 H   0  0  0  0  0  0
    6.6911   -6.5276   24.0599 H   0  0  0  0  0  0
    4.6724   -2.2200   26.6087 H   0  0  0  0  0  0
    9.8001   -3.6149   16.9715 H   0  0  0  0  0  0
    8.2228   -3.2256   24.4194 H   0  0  0  0  0  0
    6.3916    0.6054   23.9088 H   0  0  0  0  0  0
    3.8562   -5.8373   26.4812 H   0  0  0  0  0  0
    5.6968   -5.9939   27.2693 H   0  0  0  0  0  0
   11.2782   -3.1482   18.7102 H   0  0  0  0  0  0
   11.0855   -1.5453   19.4590 H   0  0  0  0  0  0
   10.4864   -2.9967   20.2968 H   0  0  0  0  0  0
    7.6268   -3.4528   15.9451 H   0  0  0  0  0  0
  1  3  1  0  0  0
  1  4  1  0  0  0
  1 25  1  0  0  0
  2  3  1  0  0  0
  2 10  2  0  0  0
  2 26  1  0  0  0
  3 12  2  0  0  0
  4  5  1  0  0  0
  4 21  2  0  0  0
  5  6  1  0  0  0
  5 27  1  0  0  0
  5 28  1  0  0  0
  6 16  1  0  0  0
  6 17  2  0  0  0
  7 13  2  0  0  0
  7 17  1  0  0  0
  7 24  1  0  0  0
  8 11  1  0  0  0
  8 14  1  0  0  0
  8 19  1  0  0  0
  8 29  1  0  0  0
  9 11  1  0  0  0
  9 19  1  0  0  0
  9 22  2  0  0  0
 10 23  1  0  0  0
 11 30  1  0  0  0
 12 15  1  0  0  0
 12 20  1  0  0  0
 13 18  1  0  0  0
 13 31  1  0  0  0
 14 18  1  0  0  0
 15 23  2  0  0  0
 15 32  1  0  0  0
 16 18  2  0  0  0
 16 33  1  0  0  0
 17 34  1  0  0  0
 19 35  1  0  0  0
 19 36  1  0  0  0
 20 37  1  0  0  0
 20 38  1  0  0  0
 20 39  1  0  0  0
 23 40  1  0  0  0
M  END
> <s_m_entry_id>
223

> <s_m_entry_name>
7GCV_ligand.1

> <s_pdb_PDB_TITLE>
GROUP DEPOSITION SARS-COV-2 MAIN PROTEASE IN COMPLEX WITH INHIBITORS FROM THE COVID MOONSHOT -- CRYSTAL STRUCTURE OF SARS-COV-2 MAIN PROTEASE IN COMPLEX WITH TRY-UNI-2EDDB1FF-7 (MPRO-X10789)

> <s_pdb_PDB_ID>
7GCV

> <s_m_Source_File>
7GCV_ligand.sdf

> <s_user_Compound_ID>
TRY-UNI-2eddb1ff-7

> <s_user_Monomer-Dimer>
Monomer

> <s_user_xcode>
x10789

$$$$
