7GCW_ligand
                    3D
 Schrodinger Suite 2021-2.
 44 46  0  0  1  0            999 V2000
    6.8680   -2.2746   17.5116 N   0  0  0  0  0  0
    7.6242   -3.0500   16.7256 C   0  0  0  0  0  0
    7.4544   -1.7231   18.5761 C   0  0  0  0  0  0
    9.0566   -0.5967   23.6912 C   0  0  0  0  0  0
    7.7728    0.2342   23.9120 C   0  0  0  0  0  0
    7.3041    0.3742   25.3411 C   0  0  0  0  0  0
    7.3133    1.5554   27.4484 C   0  0  0  0  0  0
    6.3475   -0.4890   25.8616 C   0  0  0  0  0  0
   11.5157   -0.7540   24.1466 C   0  0  0  0  0  0
    8.9293   -1.9929   24.3239 C   0  0  0  0  0  0
    9.3210   -1.6287   20.1709 N   0  0  0  0  0  0
    9.3061   -0.7425   22.2509 N   0  0  0  0  0  0
    6.3765    0.6829   27.9551 C   0  0  0  0  0  0
    8.7961   -1.9116   18.8975 C   0  0  0  0  0  0
   11.3410   -2.0458   24.7615 O   0  0  0  0  0  0
    9.5646   -2.6848   18.0381 C   0  0  0  0  0  0
   10.2330   -2.7633   24.1926 C   0  0  0  0  0  0
    7.7774    1.4016   26.1495 C   0  0  0  0  0  0
    5.8933   -0.3393   27.1621 C   0  0  0  0  0  0
   10.2793    0.1118   24.2963 C   0  0  0  0  0  0
    8.6316   -1.4766   21.3432 C   0  0  0  0  0  0
    7.5416   -2.0130   21.5670 O   0  0  0  0  0  0
    8.9662   -3.2774   16.9433 C   0  0  0  0  0  0
    7.1873   -3.5372   15.8665 H   0  0  0  0  0  0
    6.8830   -1.0927   19.2413 H   0  0  0  0  0  0
    6.9666   -0.1831   23.3087 H   0  0  0  0  0  0
    7.9077    1.2255   23.4794 H   0  0  0  0  0  0
    7.6883    2.3612   28.0620 H   0  0  0  0  0  0
    5.9504   -1.2865   25.2511 H   0  0  0  0  0  0
   11.7416   -0.8838   23.0881 H   0  0  0  0  0  0
   12.3690   -0.2492   24.5995 H   0  0  0  0  0  0
    8.1303   -2.5445   23.8284 H   0  0  0  0  0  0
    8.6723   -1.8915   25.3783 H   0  0  0  0  0  0
   10.3171   -1.5142   20.2925 H   0  0  0  0  0  0
   10.1041   -0.1937   21.9642 H   0  0  0  0  0  0
    6.0227    0.7994   28.9688 H   0  0  0  0  0  0
   10.6193   -2.8179   18.2287 H   0  0  0  0  0  0
   10.4321   -2.9621   23.1395 H   0  0  0  0  0  0
   10.1345   -3.7297   24.6870 H   0  0  0  0  0  0
    8.5152    2.0923   25.7686 H   0  0  0  0  0  0
    5.1583   -1.0236   27.5595 H   0  0  0  0  0  0
   10.0991    0.3076   25.3533 H   0  0  0  0  0  0
   10.4375    1.0620   23.7862 H   0  0  0  0  0  0
    9.5242   -3.9065   16.2656 H   0  0  0  0  0  0
  1  2  1  0  0  0
  1  3  2  0  0  0
  2 23  2  0  0  0
  2 24  1  0  0  0
  3 14  1  0  0  0
  3 25  1  0  0  0
  4  5  1  0  0  0
  4 10  1  0  0  0
  4 12  1  0  0  0
  4 20  1  0  0  0
  5  6  1  0  0  0
  5 26  1  0  0  0
  5 27  1  0  0  0
  6  8  1  0  0  0
  6 18  2  0  0  0
  7 13  2  0  0  0
  7 18  1  0  0  0
  7 28  1  0  0  0
  8 19  2  0  0  0
  8 29  1  0  0  0
  9 15  1  0  0  0
  9 20  1  0  0  0
  9 30  1  0  0  0
  9 31  1  0  0  0
 10 17  1  0  0  0
 10 32  1  0  0  0
 10 33  1  0  0  0
 11 14  1  0  0  0
 11 21  1  0  0  0
 11 34  1  0  0  0
 12 21  1  0  0  0
 12 35  1  0  0  0
 13 19  1  0  0  0
 13 36  1  0  0  0
 14 16  2  0  0  0
 15 17  1  0  0  0
 16 23  1  0  0  0
 16 37  1  0  0  0
 17 38  1  0  0  0
 17 39  1  0  0  0
 18 40  1  0  0  0
 19 41  1  0  0  0
 20 42  1  0  0  0
 20 43  1  0  0  0
 21 22  2  0  0  0
 23 44  1  0  0  0
M  END
> <s_m_entry_id>
224

> <s_m_entry_name>
7GCW_ligand.1

> <s_pdb_PDB_TITLE>
GROUP DEPOSITION SARS-COV-2 MAIN PROTEASE IN COMPLEX WITH INHIBITORS FROM THE COVID MOONSHOT -- CRYSTAL STRUCTURE OF SARS-COV-2 MAIN PROTEASE IN COMPLEX WITH NAU-LAT-445F63E5-6 (MPRO-X10800)

> <s_pdb_PDB_ID>
7GCW

> <s_m_Source_File>
7GCW_ligand.sdf

> <s_user_Compound_ID>
NAU-LAT-445f63e5-6

> <s_user_Monomer-Dimer>
Monomer

> <s_user_xcode>
x10800

$$$$
