7GCX_ligand
                    3D
 Schrodinger Suite 2021-2.
 35 37  0  0  1  0            999 V2000
    8.5663   -0.9628   20.7349 N   0  0  0  0  0  0
    7.1994   -1.4205   18.7550 C   0  0  0  0  0  0
    8.3952   -1.5493   19.4619 C   0  0  0  0  0  0
    8.0476   -1.4281   21.8848 C   0  0  0  0  0  0
    8.5765   -0.7521   23.1249 C   0  0  0  0  0  0
    7.5128   -0.0197   23.9352 C   0  0  0  0  0  0
    6.6583   -0.1384   25.9464 C   0  0  0  0  0  0
    6.3904   -0.8456   24.6059 C   0  0  0  0  0  0
    7.2555   -2.3606   21.9461 O   0  0  0  0  0  0
    6.4987   -0.6602   27.3352 C   0  0  0  0  0  0
    5.6867    0.5212   26.8708 C   0  0  0  0  0  0
    7.9568    0.4292   25.3467 C   0  0  0  0  0  0
    9.4312   -2.3215   18.9085 C   0  0  0  0  0  0
   10.7405   -2.5325   19.6258 C   0  0  0  0  0  0
    6.9837   -1.9984   17.5692 N   0  0  0  0  0  0
    7.9794   -2.7268   17.0482 C   0  0  0  0  0  0
    9.1959   -2.9148   17.6745 C   0  0  0  0  0  0
    9.1175   -0.1223   20.8337 H   0  0  0  0  0  0
    6.3918   -0.8306   19.1629 H   0  0  0  0  0  0
    9.3645   -0.0522   22.8469 H   0  0  0  0  0  0
    9.0676   -1.4912   23.7579 H   0  0  0  0  0  0
    7.0990    0.8164   23.3714 H   0  0  0  0  0  0
    6.7417   -1.8735   24.6957 H   0  0  0  0  0  0
    5.4363   -0.4831   24.2232 H   0  0  0  0  0  0
    7.3193   -0.1255   27.8135 H   0  0  0  0  0  0
    5.7759   -1.4519   27.1378 H   0  0  0  0  0  0
    4.7811   -0.0044   26.5678 H   0  0  0  0  0  0
    6.3249    1.3223   27.2436 H   0  0  0  0  0  0
    7.8939    1.5166   25.3855 H   0  0  0  0  0  0
    8.7777   -0.2166   25.6586 H   0  0  0  0  0  0
   11.3922   -3.1591   19.0169 H   0  0  0  0  0  0
   11.2206   -1.5691   19.7977 H   0  0  0  0  0  0
   10.5567   -3.0220   20.5822 H   0  0  0  0  0  0
    7.8536   -3.2050   16.0880 H   0  0  0  0  0  0
    9.9619   -3.5186   17.2109 H   0  0  0  0  0  0
  1  3  1  0  0  0
  1  4  1  0  0  0
  1 18  1  0  0  0
  2  3  1  0  0  0
  2 15  2  0  0  0
  2 19  1  0  0  0
  3 13  2  0  0  0
  4  5  1  0  0  0
  4  9  2  0  0  0
  5  6  1  0  0  0
  5 20  1  0  0  0
  5 21  1  0  0  0
  6  8  1  0  0  0
  6 12  1  0  0  0
  6 22  1  0  0  0
  7  8  1  0  0  0
  7 10  1  0  0  0
  7 11  1  0  0  0
  7 12  1  0  0  0
  8 23  1  0  0  0
  8 24  1  0  0  0
 10 11  1  0  0  0
 10 25  1  0  0  0
 10 26  1  0  0  0
 11 27  1  0  0  0
 11 28  1  0  0  0
 12 29  1  0  0  0
 12 30  1  0  0  0
 13 14  1  0  0  0
 13 17  1  0  0  0
 14 31  1  0  0  0
 14 32  1  0  0  0
 14 33  1  0  0  0
 15 16  1  0  0  0
 16 17  2  0  0  0
 16 34  1  0  0  0
 17 35  1  0  0  0
M  END
> <s_m_entry_id>
225

> <s_m_entry_name>
7GCX_ligand.1

> <s_pdb_PDB_TITLE>
GROUP DEPOSITION SARS-COV-2 MAIN PROTEASE IN COMPLEX WITH INHIBITORS FROM THE COVID MOONSHOT -- CRYSTAL STRUCTURE OF SARS-COV-2 MAIN PROTEASE IN COMPLEX WITH MAT-POS-590AC91E-24 (MPRO-X10801)

> <s_pdb_PDB_ID>
7GCX

> <s_m_Source_File>
7GCX_ligand.sdf

> <s_user_Compound_ID>
MAT-POS-590ac91e-24

> <s_user_Monomer-Dimer>
Monomer

> <s_user_xcode>
x10801

$$$$
