7GCZ_ligand
                    3D
 Schrodinger Suite 2021-2.
 46 49  0  0  1  0            999 V2000
    8.5697   -1.2378   23.4621 N   0  0  0  0  0  0
    7.0599   -1.0553   19.1721 N   0  0  0  0  0  0
    9.2252   -0.0072   23.8030 C   0  0  0  0  0  0
    8.4573    1.0984   24.1606 C   0  0  0  0  0  0
    9.0549    2.2340   24.6789 C   0  0  0  0  0  0
    8.2144   -2.1446   24.5472 C   0  0  0  0  0  0
    6.8851   -1.7909   25.1649 C   0  0  0  0  0  0
    5.1331   -1.7592   26.6859 C   0  0  0  0  0  0
    8.3957   -0.5228   21.1119 C   0  0  0  0  0  0
    8.9108   -3.2559   17.1118 C   0  0  0  0  0  0
   10.9546   -3.2528   18.4113 C   0  0  0  0  0  0
    4.6347   -0.6020   25.4887 S   0  0  0  0  0  0
   11.0181    3.4762   25.2583 N   0  0  0  0  0  0
    8.2610   -1.1153   19.8001 N   0  0  0  0  0  0
   10.4360    2.3014   24.8170 C   0  0  0  0  0  0
    6.0543   -0.8686   24.5904 C   0  0  0  0  0  0
   10.3986   -2.3924   19.3505 C   0  0  0  0  0  0
   11.2145    1.2083   24.4291 C   0  0  0  0  0  0
   10.2229   -3.6721   17.3004 C   0  0  0  0  0  0
    6.3435   -2.3036   26.3752 C   0  0  0  0  0  0
    8.1333   -1.5517   22.2066 C   0  0  0  0  0  0
    9.0940   -1.9636   19.1373 C   0  0  0  0  0  0
    8.3458   -2.3925   18.0457 C   0  0  0  0  0  0
   12.4427    3.7266   25.2690 C   0  0  0  0  0  0
    7.5311   -2.5878   21.9537 O   0  0  0  0  0  0
   10.6141    0.0639   23.9244 C   0  0  0  0  0  0
    7.0982   -1.8157   18.1145 N   0  0  0  0  0  0
    7.3850    1.0747   24.0344 H   0  0  0  0  0  0
    8.4473    3.0749   24.9789 H   0  0  0  0  0  0
    8.9895   -2.1150   25.3130 H   0  0  0  0  0  0
    8.1779   -3.1662   24.1688 H   0  0  0  0  0  0
    4.6173   -2.0662   27.5837 H   0  0  0  0  0  0
    7.6897    0.3016   21.2119 H   0  0  0  0  0  0
    9.4019   -0.1197   21.2264 H   0  0  0  0  0  0
    8.3523   -3.6024   16.2549 H   0  0  0  0  0  0
   11.9674   -3.6066   18.5359 H   0  0  0  0  0  0
   10.4388    4.2288   25.6021 H   0  0  0  0  0  0
    6.3332   -0.3960   23.6601 H   0  0  0  0  0  0
   10.9777   -2.0812   20.2074 H   0  0  0  0  0  0
   12.2897    1.2511   24.5215 H   0  0  0  0  0  0
   10.6896   -4.3292   16.5815 H   0  0  0  0  0  0
    6.8889   -3.0458   26.9392 H   0  0  0  0  0  0
   12.6338    4.7246   25.6634 H   0  0  0  0  0  0
   12.9374    2.9869   25.8984 H   0  0  0  0  0  0
   12.8319    3.6572   24.2532 H   0  0  0  0  0  0
   11.2260   -0.7741   23.6247 H   0  0  0  0  0  0
  1  3  1  0  0  0
  1  6  1  0  0  0
  1 21  1  0  0  0
  2 14  1  0  0  0
  2 27  2  0  0  0
  3  4  1  0  0  0
  3 26  2  0  0  0
  4  5  2  0  0  0
  4 28  1  0  0  0
  5 15  1  0  0  0
  5 29  1  0  0  0
  6  7  1  0  0  0
  6 30  1  0  0  0
  6 31  1  0  0  0
  7 16  2  0  0  0
  7 20  1  0  0  0
  8 12  1  0  0  0
  8 20  2  0  0  0
  8 32  1  0  0  0
  9 14  1  0  0  0
  9 21  1  0  0  0
  9 33  1  0  0  0
  9 34  1  0  0  0
 10 19  2  0  0  0
 10 23  1  0  0  0
 10 35  1  0  0  0
 11 17  2  0  0  0
 11 19  1  0  0  0
 11 36  1  0  0  0
 12 16  1  0  0  0
 13 15  1  0  0  0
 13 24  1  0  0  0
 13 37  1  0  0  0
 14 22  1  0  0  0
 15 18  2  0  0  0
 16 38  1  0  0  0
 17 22  1  0  0  0
 17 39  1  0  0  0
 18 26  1  0  0  0
 18 40  1  0  0  0
 19 41  1  0  0  0
 20 42  1  0  0  0
 21 25  2  0  0  0
 22 23  2  0  0  0
 23 27  1  0  0  0
 24 43  1  0  0  0
 24 44  1  0  0  0
 24 45  1  0  0  0
 26 46  1  0  0  0
M  END
> <s_m_entry_id>
226

> <s_m_entry_name>
7GCZ_ligand.1

> <s_pdb_PDB_TITLE>
GROUP DEPOSITION SARS-COV-2 MAIN PROTEASE IN COMPLEX WITH INHIBITORS FROM THE COVID MOONSHOT -- CRYSTAL STRUCTURE OF SARS-COV-2 MAIN PROTEASE IN COMPLEX WITH ALP-POS-C59291D4-4 (MPRO-X10820)

> <s_pdb_PDB_ID>
7GCZ

> <s_m_Source_File>
7GCZ_ligand.sdf

> <s_user_Compound_ID>
ALP-POS-c59291d4-4

> <s_user_Monomer-Dimer>
Monomer

> <s_user_xcode>
x10820

$$$$
