7GD0_ligand
                    3D
 Schrodinger Suite 2021-2.
 33 34  0  0  1  0            999 V2000
    8.4012   -0.8977   20.5570 N   0  0  0  0  0  0
    6.9603   -1.4257   18.5844 C   0  0  0  0  0  0
    8.1579   -1.4781   19.2927 C   0  0  0  0  0  0
    8.1640   -1.5321   21.7304 C   0  0  0  0  0  0
    8.6689   -0.8552   23.0028 C   0  0  2  0  0  0
    7.7386   -0.9696   24.1949 C   0  0  0  0  0  0
    7.0535   -2.1375   26.1925 C   0  0  0  0  0  0
    6.5460   -0.2556   24.2169 C   0  0  0  0  0  0
    6.7534   -2.0654   17.4282 N   0  0  0  0  0  0
    9.1961   -2.2482   18.7307 C   0  0  0  0  0  0
    5.8483   -1.4505   26.1989 C   0  0  0  0  0  0
    7.5469   -2.5919   21.8147 O   0  0  0  0  0  0
    9.0027   -2.9086   17.5264 C   0  0  0  0  0  0
    7.9954   -1.8888   25.2045 C   0  0  0  0  0  0
    5.6297   -0.4964   25.2235 C   0  0  0  0  0  0
   11.4438   -3.0528   18.9699 C   0  0  0  0  0  0
   10.3383   -2.3054   19.4838 O   0  0  0  0  0  0
    9.1983    0.4452   22.7680 O   0  0  0  0  0  0
    4.0831    0.5996   25.3338 Br  0  0  0  0  0  0
    7.7647   -2.7854   16.9255 C   0  0  0  0  0  0
    8.7720    0.0397   20.6195 H   0  0  0  0  0  0
    6.1333   -0.8442   18.9642 H   0  0  0  0  0  0
    9.5387   -1.4465   23.2891 H   0  0  0  0  0  0
    7.2619   -2.8695   26.9588 H   0  0  0  0  0  0
    6.3424    0.4793   23.4522 H   0  0  0  0  0  0
    5.1075   -1.6667   26.9544 H   0  0  0  0  0  0
    9.8037   -3.4905   17.0949 H   0  0  0  0  0  0
    8.9363   -2.4186   25.2259 H   0  0  0  0  0  0
   12.2736   -3.0064   19.6751 H   0  0  0  0  0  0
   11.1460   -4.0917   18.8279 H   0  0  0  0  0  0
   11.7556   -2.6309   18.0145 H   0  0  0  0  0  0
    9.4998    0.8230   23.5975 H   0  0  0  0  0  0
    7.6388   -3.3159   15.9933 H   0  0  0  0  0  0
  1  3  1  0  0  0
  1  4  1  0  0  0
  1 21  1  0  0  0
  2  3  1  0  0  0
  2  9  2  0  0  0
  2 22  1  0  0  0
  3 10  2  0  0  0
  4  5  1  0  0  0
  4 12  2  0  0  0
  5  6  1  0  0  0
  5 18  1  0  0  0
  5 23  1  0  0  0
  6  8  1  0  0  0
  6 14  2  0  0  0
  7 11  2  0  0  0
  7 14  1  0  0  0
  7 24  1  0  0  0
  8 15  2  0  0  0
  8 25  1  0  0  0
  9 20  1  0  0  0
 10 13  1  0  0  0
 10 17  1  0  0  0
 11 15  1  0  0  0
 11 26  1  0  0  0
 13 20  2  0  0  0
 13 27  1  0  0  0
 14 28  1  0  0  0
 15 19  1  0  0  0
 16 17  1  0  0  0
 16 29  1  0  0  0
 16 30  1  0  0  0
 16 31  1  0  0  0
 18 32  1  0  0  0
 20 33  1  0  0  0
M  END
> <s_m_entry_id>
227

> <s_m_entry_name>
7GD0_ligand.1

> <s_pdb_PDB_TITLE>
GROUP DEPOSITION SARS-COV-2 MAIN PROTEASE IN COMPLEX WITH INHIBITORS FROM THE COVID MOONSHOT -- CRYSTAL STRUCTURE OF SARS-COV-2 MAIN PROTEASE IN COMPLEX WITH BAR-COM-0F94FC3D-23 (MPRO-X10834)

> <s_pdb_PDB_ID>
7GD0

> <s_m_Source_File>
7GD0_ligand.sdf

> <s_user_Compound_ID>
BAR-COM-0f94fc3d-23

> <s_user_Monomer-Dimer>
Monomer

> <s_user_xcode>
x10834

$$$$
