7GD1_ligand
                    3D
 Schrodinger Suite 2021-2.
 38 39  0  0  1  0            999 V2000
    8.1377   -0.6940   20.6270 N   0  0  0  0  0  0
    6.6577   -0.6873   25.1028 C   0  0  0  0  0  0
    7.0385    0.0665   24.0084 C   0  0  0  0  0  0
    8.3158   -0.0872   23.4670 C   0  0  0  0  0  0
    8.8131    0.8644   22.3831 C   0  0  2  0  0  0
    9.0573    0.2196   21.0095 C   0  0  0  0  0  0
    6.9336   -1.6701   18.7931 C   0  0  0  0  0  0
    9.2655   -2.2477   19.0329 C   0  0  0  0  0  0
   10.0483    1.5661   22.7598 N   0  3  0  0  0  0
    6.8563   -2.2289   17.5804 N   0  0  0  0  0  0
    7.9701   -2.7811   17.0847 C   0  0  0  0  0  0
    9.1640   -1.0479   24.0280 C   0  0  0  0  0  0
    9.9722    0.6201   20.2970 O   0  0  0  0  0  0
    8.7511   -1.8255   25.1059 C   0  0  0  0  0  0
    8.1034   -1.6246   19.5539 C   0  0  0  0  0  0
    9.1751   -2.8092   17.7617 C   0  0  0  0  0  0
   10.4803   -2.5216   19.8838 C   0  0  0  0  0  0
   11.2108   -2.2740   23.7833 C   0  0  0  0  0  0
   10.3964   -1.1536   23.4395 O   0  0  0  0  0  0
    5.0090   -0.2897   25.9742 Br  0  0  0  0  0  0
    7.4904   -1.6411   25.6468 C   0  0  0  0  0  0
    7.2813   -0.7988   21.1520 H   0  0  0  0  0  0
    6.3479    0.7735   23.5730 H   0  0  0  0  0  0
    8.0431    1.6239   22.2470 H   0  0  0  0  0  0
    6.0581   -1.2196   19.2369 H   0  0  0  0  0  0
   10.3301    2.1796   22.0085 H   0  0  0  0  0  0
    9.8856    2.1102   23.5950 H   0  0  0  0  0  0
   10.7792    0.8915   22.9351 H   0  0  0  0  0  0
    7.9572   -3.2368   16.1057 H   0  0  0  0  0  0
    9.4139   -2.5715   25.5189 H   0  0  0  0  0  0
   10.0439   -3.2638   17.3092 H   0  0  0  0  0  0
   11.2476   -3.0039   19.2781 H   0  0  0  0  0  0
   10.8672   -1.5823   20.2789 H   0  0  0  0  0  0
   10.2054   -3.1770   20.7102 H   0  0  0  0  0  0
   12.1535   -2.2194   23.2387 H   0  0  0  0  0  0
   11.4099   -2.2639   24.8550 H   0  0  0  0  0  0
   10.6921   -3.1956   23.5193 H   0  0  0  0  0  0
    7.1568   -2.2343   26.4854 H   0  0  0  0  0  0
  1  6  1  0  0  0
  1 15  1  0  0  0
  1 22  1  0  0  0
  2  3  1  0  0  0
  2 20  1  0  0  0
  2 21  2  0  0  0
  3  4  2  0  0  0
  3 23  1  0  0  0
  4  5  1  0  0  0
  4 12  1  0  0  0
  5  6  1  0  0  0
  5  9  1  0  0  0
  5 24  1  0  0  0
  6 13  2  0  0  0
  7 10  1  0  0  0
  7 15  2  0  0  0
  7 25  1  0  0  0
  8 15  1  0  0  0
  8 16  2  0  0  0
  8 17  1  0  0  0
  9 26  1  0  0  0
  9 27  1  0  0  0
  9 28  1  0  0  0
 10 11  2  0  0  0
 11 16  1  0  0  0
 11 29  1  0  0  0
 12 14  2  0  0  0
 12 19  1  0  0  0
 14 21  1  0  0  0
 14 30  1  0  0  0
 16 31  1  0  0  0
 17 32  1  0  0  0
 17 33  1  0  0  0
 17 34  1  0  0  0
 18 19  1  0  0  0
 18 35  1  0  0  0
 18 36  1  0  0  0
 18 37  1  0  0  0
 21 38  1  0  0  0
M  CHG  1   9   1
M  END
> <s_m_entry_id>
228

> <s_m_entry_name>
7GD1_ligand.1

> <s_pdb_PDB_TITLE>
GROUP DEPOSITION SARS-COV-2 MAIN PROTEASE IN COMPLEX WITH INHIBITORS FROM THE COVID MOONSHOT -- CRYSTAL STRUCTURE OF SARS-COV-2 MAIN PROTEASE IN COMPLEX WITH BAR-COM-0F94FC3D-58 (MPRO-X10856)

> <s_pdb_PDB_ID>
7GD1

> <s_m_Source_File>
7GD1_ligand.sdf

> <s_user_Compound_ID>
BAR-COM-0f94fc3d-58

> <s_user_Monomer-Dimer>
Monomer

> <s_user_xcode>
x10856

$$$$
