7GD2_ligand
                    3D
 Schrodinger Suite 2021-2.
 44 46  0  0  1  0            999 V2000
    8.6799   -3.4842   17.4746 N   0  0  0  0  0  0
    7.6293   -1.0431   19.8495 C   0  0  0  0  0  0
    8.4042   -1.4569   18.5911 C   0  0  2  0  0  0
    7.7269   -2.5877   17.8258 C   0  0  0  0  0  0
    9.9320   -3.1374   17.9829 C   0  0  0  0  0  0
   11.1555   -3.7858   17.8401 C   0  0  0  0  0  0
   12.1233   -2.1452   19.2507 C   0  0  0  0  0  0
    7.6222   -2.0241   24.2663 C   0  0  0  0  0  0
    6.2438   -3.2894   25.7888 C   0  0  0  0  0  0
    5.6349   -1.0651   25.2047 C   0  0  0  0  0  0
    8.5038   -1.2699   22.0896 N   0  0  0  0  0  0
   10.9293   -1.4799   19.4066 C   0  0  0  0  0  0
    9.9577   -1.2434   24.0852 C   0  0  0  0  0  0
    6.7474   -0.9479   24.3902 C   0  0  0  0  0  0
    7.7246   -3.1099   21.0569 O   0  0  0  0  0  0
    8.8245   -1.9388   23.3466 C   0  0  1  0  0  0
    5.3730   -2.2172   25.9185 C   0  0  0  0  0  0
   12.2702   -3.2753   18.4835 C   0  0  0  0  0  0
   13.2235   -1.6378   19.8718 F   0  0  0  0  0  0
    9.8104   -1.9746   18.7410 C   0  0  0  0  0  0
    7.3597   -3.1912   24.9724 C   0  0  0  0  0  0
   11.5874   -0.0964   22.8236 C   0  0  0  0  0  0
   11.1613   -1.3431   23.3529 O   0  0  0  0  0  0
    6.5240   -2.6936   17.6117 O   0  0  0  0  0  0
    7.9646   -1.9059   21.0460 C   0  0  0  0  0  0
    4.3955    0.3729   25.2916 Br  0  0  0  0  0  0
    8.4363   -4.2849   16.9093 H   0  0  0  0  0  0
    6.5591   -1.0992   19.6508 H   0  0  0  0  0  0
    7.8465   -0.0006   20.0822 H   0  0  0  0  0  0
    8.4425   -0.5910   17.9302 H   0  0  0  0  0  0
   11.2272   -4.6762   17.2331 H   0  0  0  0  0  0
    6.0540   -4.2071   26.3256 H   0  0  0  0  0  0
    8.7073   -0.2824   22.0290 H   0  0  0  0  0  0
   10.8788   -0.6004   20.0313 H   0  0  0  0  0  0
   10.0894   -1.7039   25.0643 H   0  0  0  0  0  0
    9.7063   -0.1926   24.2290 H   0  0  0  0  0  0
    6.9397   -0.0310   23.8528 H   0  0  0  0  0  0
    9.1455   -2.9546   23.1158 H   0  0  0  0  0  0
    4.5129   -2.2953   26.5670 H   0  0  0  0  0  0
   13.2270   -3.7644   18.3759 H   0  0  0  0  0  0
    8.0285   -4.0350   24.8887 H   0  0  0  0  0  0
   12.5168   -0.2343   22.2710 H   0  0  0  0  0  0
   10.8218    0.2954   22.1540 H   0  0  0  0  0  0
   11.7513    0.6081   23.6390 H   0  0  0  0  0  0
  1  4  1  0  0  0
  1  5  1  0  0  0
  1 27  1  0  0  0
  2  3  1  0  0  0
  2 25  1  0  0  0
  2 28  1  0  0  0
  2 29  1  0  0  0
  3  4  1  0  0  0
  3 20  1  0  0  0
  3 30  1  0  0  0
  4 24  2  0  0  0
  5  6  1  0  0  0
  5 20  2  0  0  0
  6 18  2  0  0  0
  6 31  1  0  0  0
  7 12  2  0  0  0
  7 18  1  0  0  0
  7 19  1  0  0  0
  8 14  1  0  0  0
  8 16  1  0  0  0
  8 21  2  0  0  0
  9 17  2  0  0  0
  9 21  1  0  0  0
  9 32  1  0  0  0
 10 14  2  0  0  0
 10 17  1  0  0  0
 10 26  1  0  0  0
 11 16  1  0  0  0
 11 25  1  0  0  0
 11 33  1  0  0  0
 12 20  1  0  0  0
 12 34  1  0  0  0
 13 16  1  0  0  0
 13 23  1  0  0  0
 13 35  1  0  0  0
 13 36  1  0  0  0
 14 37  1  0  0  0
 15 25  2  0  0  0
 16 38  1  0  0  0
 17 39  1  0  0  0
 18 40  1  0  0  0
 21 41  1  0  0  0
 22 23  1  0  0  0
 22 42  1  0  0  0
 22 43  1  0  0  0
 22 44  1  0  0  0
M  END
> <s_m_entry_id>
229

> <s_m_entry_name>
7GD2_ligand.1

> <s_pdb_PDB_TITLE>
GROUP DEPOSITION SARS-COV-2 MAIN PROTEASE IN COMPLEX WITH INHIBITORS FROM THE COVID MOONSHOT -- CRYSTAL STRUCTURE OF SARS-COV-2 MAIN PROTEASE IN COMPLEX WITH BAR-COM-0F94FC3D-3 (MPRO-X10862)

> <s_pdb_PDB_ID>
7GD2

> <s_m_Source_File>
7GD2_ligand.sdf

> <s_user_Compound_ID>
BAR-COM-0f94fc3d-3

> <s_user_Monomer-Dimer>
Monomer

> <s_user_xcode>
x10862

$$$$
