7GD3_ligand
                    3D
 Schrodinger Suite 2021-2.
 52 56  0  0  1  0            999 V2000
    8.3487   -2.5292   18.0087 C   0  0  0  0  0  0
    7.0748   -2.0195   17.9162 N   0  0  0  0  0  0
    8.0974   -1.1744   23.4732 N   0  0  0  0  0  0
    6.9115   -0.9327   25.6406 C   0  0  0  0  0  0
    9.0241   -0.1021   23.6874 C   0  0  0  0  0  0
   10.8233    1.9541   24.2608 C   0  0  0  0  0  0
    5.6110   -0.3670   25.5181 C   0  0  0  0  0  0
    5.2954    0.4940   26.5455 C   0  0  0  0  0  0
    7.5440   -0.4897   26.7665 C   0  0  0  0  0  0
    7.6966   -1.6069   22.2392 C   0  0  0  0  0  0
    7.9422   -0.6633   21.0612 C   0  0  0  0  0  0
    8.9090   -2.1082   19.2102 C   0  0  0  0  0  0
   10.2032   -2.4476   19.5778 C   0  0  0  0  0  0
   10.9392   -3.2334   18.6998 C   0  0  0  0  0  0
   10.3880   -3.6705   17.4967 C   0  0  0  0  0  0
    9.0905   -3.3270   17.1402 C   0  0  0  0  0  0
    7.5647   -1.8600   24.6456 C   0  0  0  0  0  0
    8.5835    1.2186   23.7704 C   0  0  0  0  0  0
    9.4759    2.2363   24.0577 C   0  0  0  0  0  0
   13.0160    3.0330   24.7981 C   0  0  0  0  0  0
   13.6878    4.3764   24.6595 C   0  0  0  0  0  0
   14.4447    4.6414   23.3845 C   0  0  0  0  0  0
   15.1936    4.3972   24.6383 C   0  0  0  0  0  0
   11.2646    0.6345   24.1800 C   0  0  0  0  0  0
   10.3722   -0.3832   23.8926 C   0  0  0  0  0  0
    7.9280   -1.3668   19.7946 N   0  0  0  0  0  0
    6.8360   -1.3230   18.9895 N   0  0  0  0  0  0
   11.6892    3.0429   24.5251 N   0  0  0  0  0  0
    7.1558   -2.6900   22.0696 O   0  0  0  0  0  0
   13.6385    2.0315   25.1415 O   0  0  0  0  0  0
    6.5895    0.6095   27.6625 S   0  0  0  0  0  0
    4.9850   -0.6294   24.6781 H   0  0  0  0  0  0
    4.3344    0.9865   26.5613 H   0  0  0  0  0  0
    8.5385   -0.8399   27.0003 H   0  0  0  0  0  0
    8.9037   -0.1662   21.1892 H   0  0  0  0  0  0
    7.1774    0.1134   21.0532 H   0  0  0  0  0  0
   10.6055   -2.1022   20.5187 H   0  0  0  0  0  0
   11.9528   -3.5137   18.9457 H   0  0  0  0  0  0
   10.9714   -4.2851   16.8271 H   0  0  0  0  0  0
    8.6543   -3.6650   16.2119 H   0  0  0  0  0  0
    8.3660   -2.4116   25.1372 H   0  0  0  0  0  0
    6.8450   -2.6143   24.3275 H   0  0  0  0  0  0
    7.5411    1.4512   23.6101 H   0  0  0  0  0  0
    9.1214    3.2543   24.1240 H   0  0  0  0  0  0
   13.1891    5.2275   25.1232 H   0  0  0  0  0  0
   14.4328    5.7313   23.3961 H   0  0  0  0  0  0
   14.4558    3.6320   22.9734 H   0  0  0  0  0  0
   15.3829    3.3297   24.5252 H   0  0  0  0  0  0
   15.3598    5.4290   24.9480 H   0  0  0  0  0  0
   12.3070    0.4027   24.3418 H   0  0  0  0  0  0
   10.7275   -1.4011   23.8280 H   0  0  0  0  0  0
   11.3287    3.9864   24.5248 H   0  0  0  0  0  0
  1  2  1  0  0  0
  1 12  2  0  0  0
  1 16  1  0  0  0
  2 27  2  0  0  0
  3  5  1  0  0  0
  3 10  1  0  0  0
  3 17  1  0  0  0
  4  7  1  0  0  0
  4  9  2  0  0  0
  4 17  1  0  0  0
  5 18  1  0  0  0
  5 25  2  0  0  0
  6 19  1  0  0  0
  6 24  2  0  0  0
  6 28  1  0  0  0
  7  8  2  0  0  0
  7 32  1  0  0  0
  8 31  1  0  0  0
  8 33  1  0  0  0
  9 31  1  0  0  0
  9 34  1  0  0  0
 10 11  1  0  0  0
 10 29  2  0  0  0
 11 26  1  0  0  0
 11 35  1  0  0  0
 11 36  1  0  0  0
 12 13  1  0  0  0
 12 26  1  0  0  0
 13 14  2  0  0  0
 13 37  1  0  0  0
 14 15  1  0  0  0
 14 38  1  0  0  0
 15 16  2  0  0  0
 15 39  1  0  0  0
 16 40  1  0  0  0
 17 41  1  0  0  0
 17 42  1  0  0  0
 18 19  2  0  0  0
 18 43  1  0  0  0
 19 44  1  0  0  0
 20 21  1  0  0  0
 20 28  1  0  0  0
 20 30  2  0  0  0
 21 22  1  0  0  0
 21 23  1  0  0  0
 21 45  1  0  0  0
 22 23  1  0  0  0
 22 46  1  0  0  0
 22 47  1  0  0  0
 23 48  1  0  0  0
 23 49  1  0  0  0
 24 25  1  0  0  0
 24 50  1  0  0  0
 25 51  1  0  0  0
 26 27  1  0  0  0
 28 52  1  0  0  0
M  END
> <s_m_entry_id>
230

> <s_m_entry_name>
7GD3_ligand.1

> <s_pdb_PDB_TITLE>
GROUP DEPOSITION SARS-COV-2 MAIN PROTEASE IN COMPLEX WITH INHIBITORS FROM THE COVID MOONSHOT -- CRYSTAL STRUCTURE OF SARS-COV-2 MAIN PROTEASE IN COMPLEX WITH ALP-POS-C59291D4-3 (MPRO-X10870)

> <s_pdb_PDB_ID>
7GD3

> <s_m_Source_File>
7GD3_ligand.sdf

> <s_user_Compound_ID>
ALP-POS-c59291d4-3

> <s_user_Monomer-Dimer>
Monomer

> <s_user_xcode>
x10870

$$$$
