7GD4_ligand
                    3D
 Schrodinger Suite 2021-2.
 51 54  0  0  1  0            999 V2000
    7.3235   -2.9642   21.8616 O   0  0  0  0  0  0
    7.8508   -1.8933   22.1102 C   0  0  0  0  0  0
    8.2360   -1.5459   23.3731 N   0  0  0  0  0  0
    9.0966   -0.4440   23.6731 C   0  0  0  0  0  0
    8.5911    0.8517   23.7030 C   0  0  0  0  0  0
    9.3617    1.8910   24.1867 C   0  0  0  0  0  0
   10.6442    1.6527   24.6660 C   0  0  0  0  0  0
   11.2762    2.7369   25.3269 N   0  0  0  0  0  0
   12.5563    2.8552   25.7532 C   0  0  0  0  0  0
   12.8358    4.1715   26.4276 C   0  0  0  0  0  0
   14.2033    4.7269   26.0977 C   0  0  0  0  0  0
   13.4198    1.9933   25.6075 O   0  0  0  0  0  0
   11.1760    0.3689   24.5774 C   0  0  0  0  0  0
   10.4102   -0.6716   24.0783 C   0  0  0  0  0  0
    7.6894   -2.3097   24.4899 C   0  0  0  0  0  0
    6.8509   -1.4622   25.4119 C   0  0  0  0  0  0
    5.8592   -0.6608   24.9278 C   0  0  0  0  0  0
    5.1972    0.3486   26.1285 S   0  0  0  0  0  0
    6.2270   -0.3049   27.3431 C   0  0  0  0  0  0
    7.0505   -1.2658   26.8067 C   0  0  0  0  0  0
    8.0908   -0.8600   21.0065 C   0  0  0  0  0  0
    7.9937   -1.4471   19.6863 N   0  0  0  0  0  0
    6.8594   -1.3088   18.9536 N   0  0  0  0  0  0
    6.9940   -1.9678   17.8396 N   0  0  0  0  0  0
    8.2437   -2.5454   17.8292 C   0  0  0  0  0  0
    8.8984   -2.2057   19.0089 C   0  0  0  0  0  0
   10.1989   -2.6098   19.2728 C   0  0  0  0  0  0
   10.8455   -3.3701   18.3056 C   0  0  0  0  0  0
   10.2001   -3.7210   17.1201 C   0  0  0  0  0  0
    8.8925   -3.3206   16.8737 C   0  0  0  0  0  0
    7.5909    1.0495   23.3468 H   0  0  0  0  0  0
    8.9684    2.8968   24.1942 H   0  0  0  0  0  0
   10.7516    3.5731   25.5406 H   0  0  0  0  0  0
   12.7444    4.0518   27.5071 H   0  0  0  0  0  0
   12.0724    4.8947   26.1405 H   0  0  0  0  0  0
   14.3446    5.6765   26.6139 H   0  0  0  0  0  0
   14.9697    4.0217   26.4192 H   0  0  0  0  0  0
   14.2827    4.8835   25.0219 H   0  0  0  0  0  0
   12.1899    0.1810   24.8986 H   0  0  0  0  0  0
   10.8344   -1.6620   24.0038 H   0  0  0  0  0  0
    8.5055   -2.7608   25.0544 H   0  0  0  0  0  0
    7.0864   -3.1324   24.1056 H   0  0  0  0  0  0
    5.5799   -0.7169   23.8860 H   0  0  0  0  0  0
    6.2922   -0.0631   28.3937 H   0  0  0  0  0  0
    7.7927   -1.8475   27.3332 H   0  0  0  0  0  0
    9.0780   -0.4159   21.1341 H   0  0  0  0  0  0
    7.3626   -0.0543   21.0995 H   0  0  0  0  0  0
   10.6724   -2.3321   20.2029 H   0  0  0  0  0  0
   11.8620   -3.6978   18.4668 H   0  0  0  0  0  0
   10.7168   -4.3119   16.3783 H   0  0  0  0  0  0
    8.3798   -3.5982   15.9646 H   0  0  0  0  0  0
  1  2  2  0  0  0
  2  3  1  0  0  0
  2 21  1  0  0  0
  3  4  1  0  0  0
  3 15  1  0  0  0
  4  5  2  0  0  0
  4 14  1  0  0  0
  5  6  1  0  0  0
  5 31  1  0  0  0
  6  7  2  0  0  0
  6 32  1  0  0  0
  7  8  1  0  0  0
  7 13  1  0  0  0
  8  9  1  0  0  0
  8 33  1  0  0  0
  9 10  1  0  0  0
  9 12  2  0  0  0
 10 11  1  0  0  0
 10 34  1  0  0  0
 10 35  1  0  0  0
 11 36  1  0  0  0
 11 37  1  0  0  0
 11 38  1  0  0  0
 13 14  2  0  0  0
 13 39  1  0  0  0
 14 40  1  0  0  0
 15 16  1  0  0  0
 15 41  1  0  0  0
 15 42  1  0  0  0
 16 17  2  0  0  0
 16 20  1  0  0  0
 17 18  1  0  0  0
 17 43  1  0  0  0
 18 19  1  0  0  0
 19 20  2  0  0  0
 19 44  1  0  0  0
 20 45  1  0  0  0
 21 22  1  0  0  0
 21 46  1  0  0  0
 21 47  1  0  0  0
 22 23  1  0  0  0
 22 26  1  0  0  0
 23 24  2  0  0  0
 24 25  1  0  0  0
 25 26  2  0  0  0
 25 30  1  0  0  0
 26 27  1  0  0  0
 27 28  2  0  0  0
 27 48  1  0  0  0
 28 29  1  0  0  0
 28 49  1  0  0  0
 29 30  2  0  0  0
 29 50  1  0  0  0
 30 51  1  0  0  0
M  END
> <s_m_entry_id>
231

> <s_m_entry_name>
7GD4_ligand.1

> <s_pdb_PDB_TITLE>
GROUP DEPOSITION SARS-COV-2 MAIN PROTEASE IN COMPLEX WITH INHIBITORS FROM THE COVID MOONSHOT -- CRYSTAL STRUCTURE OF SARS-COV-2 MAIN PROTEASE IN COMPLEX WITH ALP-POS-C59291D4-2 (MPRO-X10871)

> <s_pdb_PDB_ID>
7GD4

> <s_m_Source_File>
7GD4_ligand.sdf

> <s_user_Compound_ID>
ALP-POS-c59291d4-2

> <s_user_Monomer-Dimer>
Monomer

> <s_user_xcode>
x10871

$$$$
