7GD5_ligand
                    3D
 Schrodinger Suite 2021-2.
 49 52  0  0  1  0            999 V2000
    8.4896   -1.6609   23.3400 N   0  0  0  0  0  0
    6.9325   -1.2590   18.9711 N   0  0  0  0  0  0
   10.1674   -0.3841   24.5855 C   0  0  0  0  0  0
    9.0539   -0.4186   23.7546 C   0  0  0  0  0  0
    8.3514    0.7586   23.5338 C   0  0  0  0  0  0
    8.8485    1.9684   23.9810 C   0  0  0  0  0  0
    8.6720   -2.8268   24.1991 C   0  0  0  0  0  0
    6.9005   -2.1133   25.8315 C   0  0  0  0  0  0
    7.9187   -1.8759   22.1173 C   0  0  0  0  0  0
    8.3588   -2.4635   17.8688 C   0  0  0  0  0  0
   10.2841   -2.5085   19.3516 C   0  0  0  0  0  0
    9.0240   -3.2584   16.9409 C   0  0  0  0  0  0
    7.3392   -2.9154   21.8447 O   0  0  0  0  0  0
    7.4676   -3.0901   25.0663 C   0  0  0  0  0  0
    6.7460   -4.3163   25.1569 C   0  0  0  0  0  0
    5.6455   -4.2336   25.9832 C   0  0  0  0  0  0
    5.5060   -2.6560   26.6528 S   0  0  0  0  0  0
   10.6866    0.8251   25.0141 C   0  0  0  0  0  0
   10.0302    2.0265   24.7285 C   0  0  0  0  0  0
   10.5090    3.2260   25.1992 N   0  0  0  0  0  0
   11.9368    3.4340   25.3910 C   0  0  0  0  0  0
    9.7953    4.4583   24.9194 C   0  0  0  0  0  0
    8.1124   -0.7970   21.0476 C   0  0  0  0  0  0
    8.0622   -1.3622   19.7155 N   0  0  0  0  0  0
    8.9915   -2.1050   19.0537 C   0  0  0  0  0  0
   10.9443   -3.2895   18.4132 C   0  0  0  0  0  0
   10.3216   -3.6623   17.2248 C   0  0  0  0  0  0
    7.0951   -1.9212   17.8636 N   0  0  0  0  0  0
   10.6342   -1.3053   24.9016 H   0  0  0  0  0  0
    7.4081    0.7341   23.0085 H   0  0  0  0  0  0
    8.3237    2.8847   23.7547 H   0  0  0  0  0  0
    9.5479   -2.6782   24.8306 H   0  0  0  0  0  0
    8.8736   -3.7030   23.5829 H   0  0  0  0  0  0
    7.3422   -1.1283   25.8641 H   0  0  0  0  0  0
   10.7401   -2.2140   20.2852 H   0  0  0  0  0  0
    8.5302   -3.5473   16.0248 H   0  0  0  0  0  0
    7.0829   -5.1829   24.6076 H   0  0  0  0  0  0
    5.0138   -5.0973   26.1292 H   0  0  0  0  0  0
   11.6088    0.8480   25.5758 H   0  0  0  0  0  0
   12.1102    4.4420   25.7678 H   0  0  0  0  0  0
   12.3170    2.7078   26.1094 H   0  0  0  0  0  0
   12.4539    3.3083   24.4398 H   0  0  0  0  0  0
   10.3252    5.2965   25.3720 H   0  0  0  0  0  0
    9.7347    4.6070   23.8413 H   0  0  0  0  0  0
    8.7892    4.3984   25.3345 H   0  0  0  0  0  0
    9.0740   -0.3061   21.1974 H   0  0  0  0  0  0
    7.3344   -0.0405   21.1503 H   0  0  0  0  0  0
   11.9563   -3.6174   18.5994 H   0  0  0  0  0  0
   10.8631   -4.2747   16.5191 H   0  0  0  0  0  0
  1  4  1  0  0  0
  1  7  1  0  0  0
  1  9  1  0  0  0
  2 24  1  0  0  0
  2 28  2  0  0  0
  3  4  1  0  0  0
  3 18  2  0  0  0
  3 29  1  0  0  0
  4  5  2  0  0  0
  5  6  1  0  0  0
  5 30  1  0  0  0
  6 19  2  0  0  0
  6 31  1  0  0  0
  7 14  1  0  0  0
  7 32  1  0  0  0
  7 33  1  0  0  0
  8 14  2  0  0  0
  8 17  1  0  0  0
  8 34  1  0  0  0
  9 13  2  0  0  0
  9 23  1  0  0  0
 10 12  1  0  0  0
 10 25  2  0  0  0
 10 28  1  0  0  0
 11 25  1  0  0  0
 11 26  2  0  0  0
 11 35  1  0  0  0
 12 27  2  0  0  0
 12 36  1  0  0  0
 14 15  1  0  0  0
 15 16  2  0  0  0
 15 37  1  0  0  0
 16 17  1  0  0  0
 16 38  1  0  0  0
 18 19  1  0  0  0
 18 39  1  0  0  0
 19 20  1  0  0  0
 20 21  1  0  0  0
 20 22  1  0  0  0
 21 40  1  0  0  0
 21 41  1  0  0  0
 21 42  1  0  0  0
 22 43  1  0  0  0
 22 44  1  0  0  0
 22 45  1  0  0  0
 23 24  1  0  0  0
 23 46  1  0  0  0
 23 47  1  0  0  0
 24 25  1  0  0  0
 26 27  1  0  0  0
 26 48  1  0  0  0
 27 49  1  0  0  0
M  END
> <s_m_entry_id>
232

> <s_m_entry_name>
7GD5_ligand.1

> <s_pdb_PDB_TITLE>
GROUP DEPOSITION SARS-COV-2 MAIN PROTEASE IN COMPLEX WITH INHIBITORS FROM THE COVID MOONSHOT -- CRYSTAL STRUCTURE OF SARS-COV-2 MAIN PROTEASE IN COMPLEX WITH ALP-POS-D2866BDF-1 (MPRO-X10876)

> <s_pdb_PDB_ID>
7GD5

> <s_m_Source_File>
7GD5_ligand.sdf

> <s_user_Compound_ID>
ALP-POS-d2866bdf-1

> <s_user_Monomer-Dimer>
Monomer

> <s_user_xcode>
x10876

$$$$
