7GD6_ligand
                    3D
 Schrodinger Suite 2021-2.
 38 39  0  0  1  0            999 V2000
    6.9943   -2.0795   17.6257 N   0  0  0  0  0  0
    8.4274   -1.6652   19.5136 C   0  0  0  0  0  0
    7.2461   -1.4852   18.7963 C   0  0  0  0  0  0
    7.9478   -2.8704   17.1199 C   0  0  0  0  0  0
    9.1630   -3.0866   17.7349 C   0  0  0  0  0  0
    9.4317   -2.4850   18.9602 C   0  0  0  0  0  0
    7.4783   -1.3277   24.3049 C   0  0  0  0  0  0
    5.3582   -1.8871   26.0418 C   0  0  0  0  0  0
    6.4330   -0.4198   24.4545 C   0  0  0  0  0  0
    4.0774    0.4143   25.4603 Cl  0  0  0  0  0  0
    5.3927   -0.7143   25.3149 C   0  0  0  0  0  0
    6.3957   -2.7939   25.8899 C   0  0  0  0  0  0
    7.4485   -2.5146   25.0341 C   0  0  0  0  0  0
    8.6056   -1.0583   23.3061 C   0  0  1  0  0  0
    8.7483    0.3491   23.1344 O   0  0  0  0  0  0
    9.9480   -1.6357   23.8059 C   0  0  0  0  0  0
   11.1641   -1.1945   23.0025 C   0  0  0  0  0  0
    8.2061   -1.7367   21.9540 C   0  0  0  0  0  0
    7.5978   -2.7946   21.9673 O   0  0  0  0  0  0
    8.6008   -1.1280   20.8128 N   0  0  0  0  0  0
   10.7412   -2.7313   19.6633 C   0  0  0  0  0  0
    6.5133   -0.8242   19.2350 H   0  0  0  0  0  0
    7.7854   -3.3798   16.1816 H   0  0  0  0  0  0
    9.9007   -3.7203   17.2653 H   0  0  0  0  0  0
    4.5342   -2.0829   26.7119 H   0  0  0  0  0  0
    6.4392    0.5069   23.9000 H   0  0  0  0  0  0
    6.3856   -3.7232   26.4401 H   0  0  0  0  0  0
    8.2523   -3.2292   24.9355 H   0  0  0  0  0  0
    9.4545    0.5255   22.5084 H   0  0  0  0  0  0
    9.8935   -2.7244   23.8100 H   0  0  0  0  0  0
   10.0895   -1.3661   24.8525 H   0  0  0  0  0  0
   12.0620   -1.6472   23.4233 H   0  0  0  0  0  0
   11.0498   -1.5114   21.9658 H   0  0  0  0  0  0
   11.2523   -0.1088   23.0424 H   0  0  0  0  0  0
    9.0465   -0.2296   20.9325 H   0  0  0  0  0  0
   11.3616   -3.3908   19.0564 H   0  0  0  0  0  0
   11.2579   -1.7833   19.8129 H   0  0  0  0  0  0
   10.5530   -3.1984   20.6300 H   0  0  0  0  0  0
  1  3  1  0  0  0
  1  4  2  0  0  0
  2  3  2  0  0  0
  2  6  1  0  0  0
  2 20  1  0  0  0
  3 22  1  0  0  0
  4  5  1  0  0  0
  4 23  1  0  0  0
  5  6  2  0  0  0
  5 24  1  0  0  0
  6 21  1  0  0  0
  7  9  1  0  0  0
  7 13  2  0  0  0
  7 14  1  0  0  0
  8 11  1  0  0  0
  8 12  2  0  0  0
  8 25  1  0  0  0
  9 11  2  0  0  0
  9 26  1  0  0  0
 10 11  1  0  0  0
 12 13  1  0  0  0
 12 27  1  0  0  0
 13 28  1  0  0  0
 14 15  1  0  0  0
 14 16  1  0  0  0
 14 18  1  0  0  0
 15 29  1  0  0  0
 16 17  1  0  0  0
 16 30  1  0  0  0
 16 31  1  0  0  0
 17 32  1  0  0  0
 17 33  1  0  0  0
 17 34  1  0  0  0
 18 19  2  0  0  0
 18 20  1  0  0  0
 20 35  1  0  0  0
 21 36  1  0  0  0
 21 37  1  0  0  0
 21 38  1  0  0  0
M  END
> <s_m_entry_id>
233

> <s_m_entry_name>
7GD6_ligand.1

> <s_pdb_PDB_TITLE>
GROUP DEPOSITION SARS-COV-2 MAIN PROTEASE IN COMPLEX WITH INHIBITORS FROM THE COVID MOONSHOT -- CRYSTAL STRUCTURE OF SARS-COV-2 MAIN PROTEASE IN COMPLEX WITH BAR-COM-0F94FC3D-38 (MPRO-X10888)

> <s_pdb_PDB_ID>
7GD6

> <s_m_Source_File>
7GD6_ligand.sdf

> <s_user_Compound_ID>
BAR-COM-0f94fc3d-38

> <s_user_Monomer-Dimer>
Monomer

> <s_user_xcode>
x10888

$$$$
