7GD7_ligand
                    3D
 Schrodinger Suite 2021-2.
 42 43  0  0  1  0            999 V2000
    7.6318   -0.7393   21.1090 N   0  0  0  0  0  0
    8.5063   -0.5460   22.1292 C   0  0  0  0  0  0
    7.8206   -1.4188   19.8768 C   0  0  0  0  0  0
    9.0251   -2.0014   19.4931 C   0  0  0  0  0  0
    9.1216   -2.6167   18.2546 C   0  0  0  0  0  0
    8.0034   -2.6376   17.4401 C   0  0  0  0  0  0
    7.2552   -0.3426   24.2835 C   0  0  0  0  0  0
    5.8447   -1.7970   26.2073 C   0  0  0  0  0  0
    7.8981   -1.2969   25.0641 C   0  0  0  0  0  0
    9.8192    3.8064   20.8032 S   0  0  0  0  0  0
    9.2820    2.5089   21.6068 N   0  0  3  0  0  0
    6.8282   -2.0939   17.7873 N   0  0  0  0  0  0
   10.0166    2.0151   22.7819 C   0  0  0  0  0  0
    5.8976   -0.1165   24.4944 C   0  0  0  0  0  0
    9.1866    3.7910   19.5189 O   0  0  0  0  0  0
    9.1682    1.2501   23.7945 C   0  0  0  0  0  0
    6.7518   -1.4955   18.9831 C   0  0  0  0  0  0
    5.1967   -0.8403   25.4476 C   0  0  0  0  0  0
    7.1957   -2.0228   26.0173 C   0  0  0  0  0  0
   11.5441    3.6068   20.5715 C   0  0  0  0  0  0
    9.6139    4.9359   21.6578 O   0  0  0  0  0  0
    9.6091   -1.0878   22.1944 O   0  0  0  0  0  0
    8.0116    0.4227   23.2060 C   0  0  1  0  0  0
    6.6932   -0.3718   21.1719 H   0  0  0  0  0  0
    9.8753   -1.9720   20.1585 H   0  0  0  0  0  0
   10.0542   -3.0652   17.9456 H   0  0  0  0  0  0
    8.0509   -3.1092   16.4697 H   0  0  0  0  0  0
    5.2958   -2.3637   26.9448 H   0  0  0  0  0  0
    8.9543   -1.4799   24.9324 H   0  0  0  0  0  0
    8.4423    2.0378   21.3018 H   0  0  0  0  0  0
   10.5050    2.8526   23.2800 H   0  0  0  0  0  0
   10.8416    1.3835   22.4523 H   0  0  0  0  0  0
    5.3777    0.6301   23.9123 H   0  0  0  0  0  0
    8.7724    1.9478   24.5325 H   0  0  0  0  0  0
    9.8125    0.5989   24.3850 H   0  0  0  0  0  0
    5.7990   -1.0579   19.2420 H   0  0  0  0  0  0
    4.1430   -0.6557   25.5959 H   0  0  0  0  0  0
    7.7079   -2.7654   26.6111 H   0  0  0  0  0  0
   11.9405    4.4664   20.0311 H   0  0  0  0  0  0
   12.0350    3.5302   21.5417 H   0  0  0  0  0  0
   11.7315    2.6993   19.9974 H   0  0  0  0  0  0
    7.3127    1.1145   22.7360 H   0  0  0  0  0  0
  1  2  1  0  0  0
  1  3  1  0  0  0
  1 24  1  0  0  0
  2 22  2  0  0  0
  2 23  1  0  0  0
  3  4  1  0  0  0
  3 17  2  0  0  0
  4  5  2  0  0  0
  4 25  1  0  0  0
  5  6  1  0  0  0
  5 26  1  0  0  0
  6 12  2  0  0  0
  6 27  1  0  0  0
  7  9  1  0  0  0
  7 14  2  0  0  0
  7 23  1  0  0  0
  8 18  2  0  0  0
  8 19  1  0  0  0
  8 28  1  0  0  0
  9 19  2  0  0  0
  9 29  1  0  0  0
 10 11  1  0  0  0
 10 15  2  0  0  0
 10 20  1  0  0  0
 10 21  2  0  0  0
 11 13  1  0  0  0
 11 30  1  0  0  0
 12 17  1  0  0  0
 13 16  1  0  0  0
 13 31  1  0  0  0
 13 32  1  0  0  0
 14 18  1  0  0  0
 14 33  1  0  0  0
 16 23  1  0  0  0
 16 34  1  0  0  0
 16 35  1  0  0  0
 17 36  1  0  0  0
 18 37  1  0  0  0
 19 38  1  0  0  0
 20 39  1  0  0  0
 20 40  1  0  0  0
 20 41  1  0  0  0
 23 42  1  0  0  0
M  END
> <s_m_entry_id>
234

> <s_m_entry_name>
7GD7_ligand.1

> <s_pdb_PDB_TITLE>
GROUP DEPOSITION SARS-COV-2 MAIN PROTEASE IN COMPLEX WITH INHIBITORS FROM THE COVID MOONSHOT -- CRYSTAL STRUCTURE OF SARS-COV-2 MAIN PROTEASE IN COMPLEX WITH ADA-UNI-F8E79267-2 (MPRO-X10889)

> <s_pdb_PDB_ID>
7GD7

> <s_m_Source_File>
7GD7_ligand.sdf

> <s_user_Compound_ID>
ADA-UNI-f8e79267-2

> <s_user_Monomer-Dimer>
Monomer

> <s_user_xcode>
x10889

$$$$
