7GD8_ligand
                    3D
 Schrodinger Suite 2021-2.
 37 40  0  0  1  0            999 V2000
    6.7971   -1.8143   18.9811 N   0  0  0  0  0  0
    8.8235   -2.1303   18.2196 N   0  0  0  0  0  0
   10.1599   -2.6109   23.7901 C   0  0  0  0  0  0
   10.2434   -1.2947   23.0618 C   0  0  0  0  0  0
    8.8224   -0.7498   22.7980 C   0  0  1  0  0  0
    8.0945   -1.5003   21.6796 C   0  0  0  0  0  0
    8.0786   -1.8683   19.3117 C   0  0  0  0  0  0
   10.2437   -2.5252   18.2606 C   0  0  0  0  0  0
    7.9332   -0.9143   24.0143 C   0  0  0  0  0  0
    8.6531   -1.4085   20.4611 N   0  0  0  0  0  0
    6.7127   -2.0464   17.6182 N   0  0  0  0  0  0
   10.6222   -3.6530   19.1575 C   0  0  0  0  0  0
    6.2272   -1.3933   26.1771 C   0  0  0  0  0  0
    7.2810   -2.3869   21.9100 O   0  0  0  0  0  0
    7.4654   -2.0081   26.1303 C   0  0  0  0  0  0
    7.9287   -2.2331   17.1958 C   0  0  0  0  0  0
   10.6433   -3.8340   17.6737 C   0  0  0  0  0  0
    6.6949   -0.2790   24.0948 C   0  0  0  0  0  0
    5.8623   -0.5354   25.1640 C   0  0  0  0  0  0
    9.4918   -2.4724   25.0604 O   0  0  0  0  0  0
    8.3034   -1.7790   25.0488 C   0  0  0  0  0  0
    4.3093    0.2509   25.2281 Cl  0  0  0  0  0  0
    6.1004   -1.6292   19.6886 H   0  0  0  0  0  0
   11.1649   -3.0016   23.9495 H   0  0  0  0  0  0
    9.6229   -3.3326   23.1746 H   0  0  0  0  0  0
   10.7597   -1.4372   22.1124 H   0  0  0  0  0  0
   10.7999   -0.5793   23.6674 H   0  0  0  0  0  0
    8.8853    0.3072   22.5394 H   0  0  0  0  0  0
   10.9699   -1.7172   18.1721 H   0  0  0  0  0  0
    9.6277   -4.0485   19.3639 H   0  0  0  0  0  0
   11.6713   -3.4022   19.3141 H   0  0  0  0  0  0
    5.5584   -1.5882   27.0023 H   0  0  0  0  0  0
    7.7744   -2.6619   26.9325 H   0  0  0  0  0  0
    8.2752   -2.4447   16.1950 H   0  0  0  0  0  0
   11.6973   -3.6250   17.4906 H   0  0  0  0  0  0
    9.6537   -4.2713   17.5404 H   0  0  0  0  0  0
    6.3907    0.4110   23.3217 H   0  0  0  0  0  0
  1  7  1  0  0  0
  1 11  1  0  0  0
  1 23  1  0  0  0
  2  7  1  0  0  0
  2  8  1  0  0  0
  2 16  1  0  0  0
  3  4  1  0  0  0
  3 20  1  0  0  0
  3 24  1  0  0  0
  3 25  1  0  0  0
  4  5  1  0  0  0
  4 26  1  0  0  0
  4 27  1  0  0  0
  5  6  1  0  0  0
  5  9  1  0  0  0
  5 28  1  0  0  0
  6 10  1  0  0  0
  6 14  2  0  0  0
  7 10  2  0  0  0
  8 12  1  0  0  0
  8 17  1  0  0  0
  8 29  1  0  0  0
  9 18  1  0  0  0
  9 21  2  0  0  0
 11 16  2  0  0  0
 12 17  1  0  0  0
 12 30  1  0  0  0
 12 31  1  0  0  0
 13 15  2  0  0  0
 13 19  1  0  0  0
 13 32  1  0  0  0
 15 21  1  0  0  0
 15 33  1  0  0  0
 16 34  1  0  0  0
 17 35  1  0  0  0
 17 36  1  0  0  0
 18 19  2  0  0  0
 18 37  1  0  0  0
 19 22  1  0  0  0
 20 21  1  0  0  0
M  END
> <s_m_entry_id>
235

> <s_m_entry_name>
7GD8_ligand.1

> <s_pdb_PDB_TITLE>
GROUP DEPOSITION SARS-COV-2 MAIN PROTEASE IN COMPLEX WITH INHIBITORS FROM THE COVID MOONSHOT -- CRYSTAL STRUCTURE OF SARS-COV-2 MAIN PROTEASE IN COMPLEX WITH JAG-UCB-119787EF-1 (MPRO-X10898)

> <s_pdb_PDB_ID>
7GD8

> <s_m_Source_File>
7GD8_ligand.sdf

> <s_user_Compound_ID>
JAG-UCB-119787ef-1

> <s_user_Monomer-Dimer>
Monomer

> <s_user_xcode>
x10898

$$$$
