7GDA_ligand
                    3D
 Schrodinger Suite 2021-2.
 33 34  0  0  1  0            999 V2000
    6.8754   -2.1234   17.6012 N   0  0  0  0  0  0
    7.0984   -1.5350   18.7814 C   0  0  0  0  0  0
    7.8901   -2.7981   17.0459 C   0  0  0  0  0  0
    9.1281   -2.9416   17.6402 C   0  0  0  0  0  0
    9.3684   -2.3529   18.8783 C   0  0  0  0  0  0
   10.6659   -2.6019   19.6057 C   0  0  0  0  0  0
    7.6564   -1.9015   25.2009 C   0  0  0  0  0  0
    6.2829   -0.2049   24.2846 C   0  0  0  0  0  0
    8.5129   -0.9740   20.7055 N   0  0  0  0  0  0
    6.7655   -2.1989   26.1593 N   0  0  0  0  0  0
    8.4833   -0.6687   23.1195 C   0  0  1  0  0  0
    5.6168   -1.5095   26.1836 C   0  0  0  0  0  0
    8.0803   -1.4744   21.8810 C   0  0  0  0  0  0
    7.4690   -0.9270   24.2294 C   0  0  0  0  0  0
    5.3567   -0.4976   25.2639 C   0  0  0  0  0  0
    9.9308   -0.9367   23.5363 C   0  0  0  0  0  0
    7.4035   -2.4901   21.9635 O   0  0  0  0  0  0
    8.3185   -1.6075   19.4558 C   0  0  0  0  0  0
    3.8788    0.4246   25.3396 Cl  0  0  0  0  0  0
    6.3128   -0.9688   19.2596 H   0  0  0  0  0  0
    7.7633   -3.2664   16.0810 H   0  0  0  0  0  0
    9.9027   -3.5079   17.1444 H   0  0  0  0  0  0
   10.6639   -2.0576   20.5500 H   0  0  0  0  0  0
   10.7740   -3.6686   19.8021 H   0  0  0  0  0  0
   11.4989   -2.2599   18.9915 H   0  0  0  0  0  0
    8.5938   -2.4356   25.1504 H   0  0  0  0  0  0
    6.0931    0.5776   23.5648 H   0  0  0  0  0  0
    9.0095   -0.0949   20.6830 H   0  0  0  0  0  0
    8.4126    0.3866   22.8560 H   0  0  0  0  0  0
    4.8677   -1.7343   26.9284 H   0  0  0  0  0  0
   10.1712   -0.3435   24.4186 H   0  0  0  0  0  0
   10.0533   -1.9951   23.7663 H   0  0  0  0  0  0
   10.6008   -0.6627   22.7213 H   0  0  0  0  0  0
  1  2  1  0  0  0
  1  3  2  0  0  0
  2 18  2  0  0  0
  2 20  1  0  0  0
  3  4  1  0  0  0
  3 21  1  0  0  0
  4  5  2  0  0  0
  4 22  1  0  0  0
  5  6  1  0  0  0
  5 18  1  0  0  0
  6 23  1  0  0  0
  6 24  1  0  0  0
  6 25  1  0  0  0
  7 10  1  0  0  0
  7 14  2  0  0  0
  7 26  1  0  0  0
  8 14  1  0  0  0
  8 15  2  0  0  0
  8 27  1  0  0  0
  9 13  1  0  0  0
  9 18  1  0  0  0
  9 28  1  0  0  0
 10 12  2  0  0  0
 11 13  1  0  0  0
 11 14  1  0  0  0
 11 16  1  0  0  0
 11 29  1  0  0  0
 12 15  1  0  0  0
 12 30  1  0  0  0
 13 17  2  0  0  0
 15 19  1  0  0  0
 16 31  1  0  0  0
 16 32  1  0  0  0
 16 33  1  0  0  0
M  END
> <s_m_entry_id>
236

> <s_m_entry_name>
7GDA_ligand.1

> <s_pdb_PDB_TITLE>
GROUP DEPOSITION SARS-COV-2 MAIN PROTEASE IN COMPLEX WITH INHIBITORS FROM THE COVID MOONSHOT -- CRYSTAL STRUCTURE OF SARS-COV-2 MAIN PROTEASE IN COMPLEX WITH TRY-UNI-2EDDB1FF-3 (MPRO-X10900)

> <s_pdb_PDB_ID>
7GDA

> <s_m_Source_File>
7GDA_ligand.sdf

> <s_user_Compound_ID>
TRY-UNI-2eddb1ff-3

> <s_user_Monomer-Dimer>
Monomer

> <s_user_xcode>
x10900

$$$$
