7GDB_ligand
                    3D
 Schrodinger Suite 2021-2.
 37 40  0  0  1  0            999 V2000
    6.7979   -0.9850   18.0556 N   0  0  0  0  0  0
    8.6316   -2.1644   18.3642 N   0  0  0  0  0  0
    7.1188   -0.6915   24.5494 C   0  0  0  0  0  0
    7.1964    0.1013   23.2691 C   0  0  0  0  0  0
    8.4599   -0.2733   22.4652 C   0  0  2  0  0  0
    8.1214   -1.2513   21.3406 C   0  0  0  0  0  0
    7.8310   -1.1592   18.8622 C   0  0  0  0  0  0
    9.9606   -2.5840   18.8674 C   0  0  0  0  0  0
    9.5791   -0.8949   23.2783 C   0  0  0  0  0  0
    7.8363   -2.4286   21.5551 O   0  0  0  0  0  0
    8.3228   -0.5527   25.3231 O   0  0  0  0  0  0
    9.4521   -0.9735   24.6647 C   0  0  0  0  0  0
   10.4431   -1.5408   25.4495 C   0  0  0  0  0  0
   11.5666   -2.0804   24.8498 C   0  0  0  0  0  0
   10.7212   -1.4397   22.6873 C   0  0  0  0  0  0
   11.6846   -2.0354   23.4785 C   0  0  0  0  0  0
   13.0703   -2.7772   22.7208 Cl  0  0  0  0  0  0
    7.9543   -0.6787   20.1233 N   0  0  0  0  0  0
    7.9877   -2.5994   17.2416 C   0  0  0  0  0  0
    6.8986   -1.9206   17.0340 N   0  0  0  0  0  0
   10.8120   -3.4371   17.9923 C   0  0  0  0  0  0
   10.1736   -4.0164   19.2141 C   0  0  0  0  0  0
    6.1193   -0.2635   18.2528 H   0  0  0  0  0  0
    6.9572   -1.7437   24.3154 H   0  0  0  0  0  0
    6.2679   -0.3481   25.1378 H   0  0  0  0  0  0
    7.2169    1.1659   23.5021 H   0  0  0  0  0  0
    6.3105   -0.0963   22.6656 H   0  0  0  0  0  0
    8.8464    0.6380   22.0089 H   0  0  0  0  0  0
   10.4880   -1.8587   19.4870 H   0  0  0  0  0  0
   10.3362   -1.5600   26.5240 H   0  0  0  0  0  0
   12.3388   -2.5305   25.4561 H   0  0  0  0  0  0
   10.8487   -1.3944   21.6158 H   0  0  0  0  0  0
    8.4027   -3.4100   16.6609 H   0  0  0  0  0  0
   11.7880   -3.1901   18.4101 H   0  0  0  0  0  0
   10.0633   -3.7262   17.2547 H   0  0  0  0  0  0
    9.2790   -4.4382   18.7561 H   0  0  0  0  0  0
   11.0036   -3.9021   19.9114 H   0  0  0  0  0  0
  1  7  1  0  0  0
  1 20  1  0  0  0
  1 23  1  0  0  0
  2  7  1  0  0  0
  2  8  1  0  0  0
  2 19  1  0  0  0
  3  4  1  0  0  0
  3 11  1  0  0  0
  3 24  1  0  0  0
  3 25  1  0  0  0
  4  5  1  0  0  0
  4 26  1  0  0  0
  4 27  1  0  0  0
  5  6  1  0  0  0
  5  9  1  0  0  0
  5 28  1  0  0  0
  6 10  2  0  0  0
  6 18  1  0  0  0
  7 18  2  0  0  0
  8 21  1  0  0  0
  8 22  1  0  0  0
  8 29  1  0  0  0
  9 12  1  0  0  0
  9 15  2  0  0  0
 11 12  1  0  0  0
 12 13  2  0  0  0
 13 14  1  0  0  0
 13 30  1  0  0  0
 14 16  2  0  0  0
 14 31  1  0  0  0
 15 16  1  0  0  0
 15 32  1  0  0  0
 16 17  1  0  0  0
 19 20  2  0  0  0
 19 33  1  0  0  0
 21 22  1  0  0  0
 21 34  1  0  0  0
 21 35  1  0  0  0
 22 36  1  0  0  0
 22 37  1  0  0  0
M  END
> <s_m_entry_id>
237

> <s_m_entry_name>
7GDB_ligand.1

> <s_pdb_PDB_TITLE>
GROUP DEPOSITION SARS-COV-2 MAIN PROTEASE IN COMPLEX WITH INHIBITORS FROM THE COVID MOONSHOT -- CRYSTAL STRUCTURE OF SARS-COV-2 MAIN PROTEASE IN COMPLEX WITH MAT-POS-968E8D9C-1 (MPRO-X10906)

> <s_pdb_PDB_ID>
7GDB

> <s_m_Source_File>
7GDB_ligand.sdf

> <s_user_Compound_ID>
MAT-POS-968e8d9c-1

> <s_user_Monomer-Dimer>
Monomer

> <s_user_xcode>
x10906

$$$$
