7GDC_ligand
                    3D
 Schrodinger Suite 2021-2.
 37 39  0  0  1  0            999 V2000
    8.3713   -1.0896   20.8337 N   0  0  0  0  0  0
    7.2681   -1.4374   18.7672 C   0  0  0  0  0  0
    8.4158   -1.6014   19.5368 C   0  0  0  0  0  0
    8.1041   -1.5608   22.0526 C   0  0  0  0  0  0
    8.6696   -0.7332   23.2082 C   0  0  2  0  0  0
   10.0391   -1.3293   23.5999 C   0  0  0  0  0  0
    7.8821   -1.7361   25.3883 C   0  0  0  0  0  0
    5.4587   -0.4677   25.2186 C   0  0  0  0  0  0
    7.6548   -0.8519   24.3303 C   0  0  0  0  0  0
    7.0702   -2.0534   17.6011 N   0  0  0  0  0  0
    9.4668   -2.3635   19.0093 C   0  0  0  0  0  0
    6.9020   -1.9954   26.3361 C   0  0  0  0  0  0
    7.4032   -2.5483   22.2378 O   0  0  0  0  0  0
    9.2707   -2.9760   17.7795 C   0  0  0  0  0  0
    9.8447   -2.6083   24.3737 C   0  0  0  0  0  0
    5.6726   -1.3701   26.2364 C   0  0  0  0  0  0
    6.4291   -0.1893   24.2791 C   0  0  0  0  0  0
   10.8149   -2.4335   19.6825 C   0  0  0  0  0  0
   10.8289   -3.3400   20.7741 O   0  0  0  0  0  0
    9.0796   -2.3835   25.5757 O   0  0  0  0  0  0
    8.0629   -2.8135   17.1312 C   0  0  0  0  0  0
    3.9247    0.3523   25.1174 Cl  0  0  0  0  0  0
    8.5807   -0.1156   20.9997 H   0  0  0  0  0  0
    6.4791   -0.7828   19.1070 H   0  0  0  0  0  0
    8.7821    0.3087   22.9082 H   0  0  0  0  0  0
   10.5847   -0.6128   24.2139 H   0  0  0  0  0  0
   10.6169   -1.5345   22.6987 H   0  0  0  0  0  0
    7.1016   -2.6820   27.1455 H   0  0  0  0  0  0
   10.0580   -3.5712   17.3410 H   0  0  0  0  0  0
   10.8172   -3.0255   24.6353 H   0  0  0  0  0  0
    9.3302   -3.3368   23.7471 H   0  0  0  0  0  0
    4.8851   -1.5820   26.9445 H   0  0  0  0  0  0
    6.2387    0.5405   23.5061 H   0  0  0  0  0  0
   11.0972   -1.4406   20.0324 H   0  0  0  0  0  0
   11.5687   -2.7320   18.9540 H   0  0  0  0  0  0
   11.7034   -3.3513   21.1701 H   0  0  0  0  0  0
    7.9431   -3.3411   16.1965 H   0  0  0  0  0  0
  1  3  1  0  0  0
  1  4  1  0  0  0
  1 23  1  0  0  0
  2  3  1  0  0  0
  2 10  2  0  0  0
  2 24  1  0  0  0
  3 11  2  0  0  0
  4  5  1  0  0  0
  4 13  2  0  0  0
  5  6  1  0  0  0
  5  9  1  0  0  0
  5 25  1  0  0  0
  6 15  1  0  0  0
  6 26  1  0  0  0
  6 27  1  0  0  0
  7  9  1  0  0  0
  7 12  2  0  0  0
  7 20  1  0  0  0
  8 16  2  0  0  0
  8 17  1  0  0  0
  8 22  1  0  0  0
  9 17  2  0  0  0
 10 21  1  0  0  0
 11 14  1  0  0  0
 11 18  1  0  0  0
 12 16  1  0  0  0
 12 28  1  0  0  0
 14 21  2  0  0  0
 14 29  1  0  0  0
 15 20  1  0  0  0
 15 30  1  0  0  0
 15 31  1  0  0  0
 16 32  1  0  0  0
 17 33  1  0  0  0
 18 19  1  0  0  0
 18 34  1  0  0  0
 18 35  1  0  0  0
 19 36  1  0  0  0
 21 37  1  0  0  0
M  END
> <s_m_entry_id>
238

> <s_m_entry_name>
7GDC_ligand.1

> <s_pdb_PDB_TITLE>
GROUP DEPOSITION SARS-COV-2 MAIN PROTEASE IN COMPLEX WITH INHIBITORS FROM THE COVID MOONSHOT -- CRYSTAL STRUCTURE OF SARS-COV-2 MAIN PROTEASE IN COMPLEX WITH LON-WEI-0A73FCB8-7 (MPRO-X10942)

> <s_pdb_PDB_ID>
7GDC

> <s_m_Source_File>
7GDC_ligand.sdf

> <s_user_Compound_ID>
LON-WEI-0a73fcb8-7

> <s_user_Monomer-Dimer>
Monomer

> <s_user_xcode>
x10942

$$$$
