7GDD_ligand
                    3D
 Schrodinger Suite 2021-2.
 34 36  0  0  1  0            999 V2000
    7.6731   -0.5709   23.9826 C   0  0  0  0  0  0
    9.2365   -2.9796   17.4906 C   0  0  0  0  0  0
    7.9814   -2.8400   16.8533 C   0  0  0  0  0  0
    7.2140   -1.3719   18.4225 C   0  0  0  0  0  0
   10.6895   -2.4131   19.3620 C   0  0  0  0  0  0
   11.6759   -3.2055   18.8364 C   0  0  0  0  0  0
   11.4721   -3.8953   17.6489 C   0  0  0  0  0  0
   10.2789   -3.8016   16.9869 C   0  0  0  0  0  0
    7.1747   -1.8842   25.9485 C   0  0  0  0  0  0
    8.5208   -0.3082   22.7610 C   0  0  0  0  0  0
    8.0416   -1.5263   24.9244 C   0  0  0  0  0  0
    8.1099   -1.1893   21.5964 C   0  0  0  0  0  0
    6.4420    0.0588   24.1099 C   0  0  0  0  0  0
    5.5834   -0.3162   25.1186 C   0  0  0  0  0  0
    5.9250   -1.2854   26.0447 C   0  0  0  0  0  0
    8.3881   -1.4168   19.1623 C   0  0  0  0  0  0
    9.4441   -2.2577   18.6957 C   0  0  0  0  0  0
    6.9983   -2.0642   17.2999 N   0  0  0  0  0  0
    8.5311   -0.7539   20.3955 N   0  0  0  0  0  0
    7.5134   -2.2557   21.7602 O   0  0  0  0  0  0
    4.0240    0.4556   25.2188 Cl  0  0  0  0  0  0
    7.7743   -3.3839   15.9436 H   0  0  0  0  0  0
    6.3958   -0.7453   18.7454 H   0  0  0  0  0  0
   10.8527   -1.8955   20.2957 H   0  0  0  0  0  0
   12.6233   -3.2982   19.3465 H   0  0  0  0  0  0
   12.2591   -4.5120   17.2407 H   0  0  0  0  0  0
   10.1332   -4.3596   16.0738 H   0  0  0  0  0  0
    7.4716   -2.6292   26.6718 H   0  0  0  0  0  0
    9.5685   -0.4893   23.0008 H   0  0  0  0  0  0
    8.4283    0.7392   22.4737 H   0  0  0  0  0  0
    9.0111   -1.9984   24.8639 H   0  0  0  0  0  0
    6.1609    0.8399   23.4189 H   0  0  0  0  0  0
    5.2444   -1.5792   26.8302 H   0  0  0  0  0  0
    9.0044    0.1349   20.3182 H   0  0  0  0  0  0
  1 10  1  0  0  0
  1 11  1  0  0  0
  1 13  2  0  0  0
  2  3  1  0  0  0
  2  8  1  0  0  0
  2 17  2  0  0  0
  3 18  2  0  0  0
  3 22  1  0  0  0
  4 16  2  0  0  0
  4 18  1  0  0  0
  4 23  1  0  0  0
  5  6  2  0  0  0
  5 17  1  0  0  0
  5 24  1  0  0  0
  6  7  1  0  0  0
  6 25  1  0  0  0
  7  8  2  0  0  0
  7 26  1  0  0  0
  8 27  1  0  0  0
  9 11  2  0  0  0
  9 15  1  0  0  0
  9 28  1  0  0  0
 10 12  1  0  0  0
 10 29  1  0  0  0
 10 30  1  0  0  0
 11 31  1  0  0  0
 12 19  1  0  0  0
 12 20  2  0  0  0
 13 14  1  0  0  0
 13 32  1  0  0  0
 14 15  2  0  0  0
 14 21  1  0  0  0
 15 33  1  0  0  0
 16 17  1  0  0  0
 16 19  1  0  0  0
 19 34  1  0  0  0
M  END
> <s_m_entry_id>
239

> <s_m_entry_name>
7GDD_ligand.1

> <s_pdb_PDB_TITLE>
GROUP DEPOSITION SARS-COV-2 MAIN PROTEASE IN COMPLEX WITH INHIBITORS FROM THE COVID MOONSHOT -- CRYSTAL STRUCTURE OF SARS-COV-2 MAIN PROTEASE IN COMPLEX WITH ADA-UCB-6C2CB422-1 (MPRO-X10959)

> <s_pdb_PDB_ID>
7GDD

> <s_m_Source_File>
7GDD_ligand.sdf

> <s_user_Compound_ID>
ADA-UCB-6c2cb422-1

> <s_user_Monomer-Dimer>
Monomer

> <s_user_xcode>
x10959

$$$$
