7GDE_ligand
                    3D
 Schrodinger Suite 2021-2.
 31 32  0  0  1  0            999 V2000
    8.5182   -0.7613   20.4837 N   0  0  0  0  0  0
    8.3686   -1.4445   19.2587 C   0  0  0  0  0  0
    8.1111   -1.2044   21.6863 C   0  0  0  0  0  0
    8.5897   -0.3818   22.8650 C   0  0  0  0  0  0
    7.6904   -0.6318   24.0531 C   0  0  0  0  0  0
    8.0661   -1.5039   25.0662 C   0  0  0  0  0  0
    5.9221   -1.2459   26.1288 C   0  0  0  0  0  0
    9.3979   -2.2575   18.7947 C   0  0  0  0  0  0
    4.0109    0.4148   25.1889 Cl  0  0  0  0  0  0
    5.5711   -0.3569   25.1363 C   0  0  0  0  0  0
    7.1917   -1.8046   26.1009 C   0  0  0  0  0  0
    6.4337   -0.0400   24.1076 C   0  0  0  0  0  0
    7.4359   -2.2155   21.8391 O   0  0  0  0  0  0
    7.1877   -1.4106   18.5248 C   0  0  0  0  0  0
    7.0030   -2.1094   17.4029 N   0  0  0  0  0  0
    8.0139   -2.8826   16.9808 C   0  0  0  0  0  0
    9.2312   -3.0068   17.6410 C   0  0  0  0  0  0
   10.3227   -3.9220   17.1355 C   0  0  0  0  0  0
    8.9651    0.1442   20.5056 H   0  0  0  0  0  0
    8.5616    0.6762   22.6046 H   0  0  0  0  0  0
    9.6111   -0.6676   23.1163 H   0  0  0  0  0  0
    9.0472   -1.9554   25.0538 H   0  0  0  0  0  0
    5.2148   -1.4942   26.9062 H   0  0  0  0  0  0
   10.3321   -2.3067   19.3342 H   0  0  0  0  0  0
    7.4984   -2.4763   26.8890 H   0  0  0  0  0  0
    6.1355    0.6655   23.3462 H   0  0  0  0  0  0
    6.3632   -0.7968   18.8565 H   0  0  0  0  0  0
    7.9101   -3.4596   16.0737 H   0  0  0  0  0  0
    9.9903   -4.4145   16.2216 H   0  0  0  0  0  0
   11.2195   -3.3384   16.9275 H   0  0  0  0  0  0
   10.5464   -4.6740   17.8921 H   0  0  0  0  0  0
  1  2  1  0  0  0
  1  3  1  0  0  0
  1 19  1  0  0  0
  2  8  1  0  0  0
  2 14  2  0  0  0
  3  4  1  0  0  0
  3 13  2  0  0  0
  4  5  1  0  0  0
  4 20  1  0  0  0
  4 21  1  0  0  0
  5  6  1  0  0  0
  5 12  2  0  0  0
  6 11  2  0  0  0
  6 22  1  0  0  0
  7 10  2  0  0  0
  7 11  1  0  0  0
  7 23  1  0  0  0
  8 17  2  0  0  0
  8 24  1  0  0  0
  9 10  1  0  0  0
 10 12  1  0  0  0
 11 25  1  0  0  0
 12 26  1  0  0  0
 14 15  1  0  0  0
 14 27  1  0  0  0
 15 16  2  0  0  0
 16 17  1  0  0  0
 16 28  1  0  0  0
 17 18  1  0  0  0
 18 29  1  0  0  0
 18 30  1  0  0  0
 18 31  1  0  0  0
M  END
> <s_m_entry_id>
240

> <s_m_entry_name>
7GDE_ligand.1

> <s_pdb_PDB_TITLE>
GROUP DEPOSITION SARS-COV-2 MAIN PROTEASE IN COMPLEX WITH INHIBITORS FROM THE COVID MOONSHOT -- CRYSTAL STRUCTURE OF SARS-COV-2 MAIN PROTEASE IN COMPLEX WITH EDG-MED-0DA5AD92-12 (MPRO-X10976)

> <s_pdb_PDB_ID>
7GDE

> <s_m_Source_File>
7GDE_ligand.sdf

> <s_user_Compound_ID>
EDG-MED-0da5ad92-12

> <s_user_Monomer-Dimer>
Monomer

> <s_user_xcode>
x10976

$$$$
