7GDF_ligand
                    3D
 Schrodinger Suite 2021-2.
 36 37  0  0  1  0            999 V2000
    8.6618   -0.7109   20.3957 N   0  0  0  0  0  0
    7.8864   -2.8665   16.9606 C   0  0  0  0  0  0
    7.1667   -1.4496   18.6038 C   0  0  0  0  0  0
    8.4093   -1.4681   19.2312 C   0  0  0  0  0  0
    8.2071   -0.9973   21.6309 C   0  0  0  0  0  0
    8.6408   -0.0180   22.7031 C   0  0  0  0  0  0
    9.0908   -1.4011   24.7818 C   0  0  0  0  0  0
    6.6641   -0.6055   25.7220 C   0  0  0  0  0  0
    4.6250   -1.0713   26.7774 F   0  0  0  0  0  0
    5.3144   -0.1146   26.1733 C   0  0  0  0  0  0
    5.4145    0.9228   27.0065 F   0  0  0  0  0  0
    4.5434    0.2744   25.1546 F   0  0  0  0  0  0
    7.4170   -1.4817   26.4898 C   0  0  0  0  0  0
    8.6508   -1.8799   26.0064 C   0  0  0  0  0  0
    7.0728   -0.1289   24.5356 N   0  0  0  0  0  0
    8.2693   -0.5285   24.0740 C   0  0  0  0  0  0
    7.5238   -1.9846   21.8946 O   0  0  0  0  0  0
    9.4279   -2.2592   18.6810 C   0  0  0  0  0  0
   10.7735   -2.4181   19.3543 C   0  0  0  0  0  0
   11.2640   -3.8493   19.4190 C   0  0  0  0  0  0
    6.8974   -2.1369   17.4897 N   0  0  0  0  0  0
    9.1471   -2.9592   17.5116 C   0  0  0  0  0  0
    9.2271    0.1244   20.3422 H   0  0  0  0  0  0
    7.7186   -3.4251   16.0516 H   0  0  0  0  0  0
    6.3621   -0.8588   19.0164 H   0  0  0  0  0  0
    8.1593    0.9447   22.5315 H   0  0  0  0  0  0
    9.7200    0.1249   22.6491 H   0  0  0  0  0  0
   10.0524   -1.7065   24.3965 H   0  0  0  0  0  0
    7.0359   -1.8340   27.4369 H   0  0  0  0  0  0
    9.2697   -2.5582   26.5750 H   0  0  0  0  0  0
   10.7238   -2.0072   20.3627 H   0  0  0  0  0  0
   11.5116   -1.8062   18.8358 H   0  0  0  0  0  0
   12.2339   -3.8795   19.9154 H   0  0  0  0  0  0
   10.5505   -4.4534   19.9794 H   0  0  0  0  0  0
   11.3610   -4.2466   18.4086 H   0  0  0  0  0  0
    9.9008   -3.5690   17.0359 H   0  0  0  0  0  0
  1  4  1  0  0  0
  1  5  1  0  0  0
  1 23  1  0  0  0
  2 21  1  0  0  0
  2 22  2  0  0  0
  2 24  1  0  0  0
  3  4  1  0  0  0
  3 21  2  0  0  0
  3 25  1  0  0  0
  4 18  2  0  0  0
  5  6  1  0  0  0
  5 17  2  0  0  0
  6 16  1  0  0  0
  6 26  1  0  0  0
  6 27  1  0  0  0
  7 14  1  0  0  0
  7 16  2  0  0  0
  7 28  1  0  0  0
  8 10  1  0  0  0
  8 13  1  0  0  0
  8 15  2  0  0  0
  9 10  1  0  0  0
 10 11  1  0  0  0
 10 12  1  0  0  0
 13 14  2  0  0  0
 13 29  1  0  0  0
 14 30  1  0  0  0
 15 16  1  0  0  0
 18 19  1  0  0  0
 18 22  1  0  0  0
 19 20  1  0  0  0
 19 31  1  0  0  0
 19 32  1  0  0  0
 20 33  1  0  0  0
 20 34  1  0  0  0
 20 35  1  0  0  0
 22 36  1  0  0  0
M  END
> <s_m_entry_id>
241

> <s_m_entry_name>
7GDF_ligand.1

> <s_pdb_PDB_TITLE>
GROUP DEPOSITION SARS-COV-2 MAIN PROTEASE IN COMPLEX WITH INHIBITORS FROM THE COVID MOONSHOT -- CRYSTAL STRUCTURE OF SARS-COV-2 MAIN PROTEASE IN COMPLEX WITH JAG-UCB-A3EF7265-23 (MPRO-X10995)

> <s_pdb_PDB_ID>
7GDF

> <s_m_Source_File>
7GDF_ligand.sdf

> <s_user_Compound_ID>
JAG-UCB-a3ef7265-23

> <s_user_Monomer-Dimer>
Monomer

> <s_user_xcode>
x10995

$$$$
