7GDG_ligand
                    3D
 Schrodinger Suite 2021-2.
 27 28  0  0  1  0            999 V2000
    8.5947   -0.8005   20.6443 N   0  0  0  0  0  0
    7.6908   -0.5962   24.1563 C   0  0  0  0  0  0
    8.0154   -1.2323   21.8063 C   0  0  0  0  0  0
    8.4873   -1.4506   19.3893 C   0  0  0  0  0  0
    9.5302   -2.2096   18.8713 C   0  0  0  0  0  0
    9.3232   -2.9546   17.7210 C   0  0  0  0  0  0
    7.2782   -1.4506   18.6947 C   0  0  0  0  0  0
    8.0810   -2.9042   17.1188 C   0  0  0  0  0  0
    8.2978   -0.4469   22.8898 N   0  0  0  0  0  0
    7.0647   -2.1630   17.5829 N   0  0  0  0  0  0
    6.1406   -1.4202   26.3136 C   0  0  0  0  0  0
    6.4043   -0.0912   24.3147 C   0  0  0  0  0  0
    5.6500   -0.5214   25.3878 C   0  0  0  0  0  0
    7.4513   -1.8590   26.1872 C   0  0  0  0  0  0
    7.3135   -2.2342   21.8707 O   0  0  0  0  0  0
    8.2310   -1.4419   25.1188 C   0  0  0  0  0  0
    4.0382    0.1010   25.5814 Cl  0  0  0  0  0  0
    9.1497    0.0433   20.6399 H   0  0  0  0  0  0
   10.4909   -2.2152   19.3646 H   0  0  0  0  0  0
   10.1235   -3.5561   17.3159 H   0  0  0  0  0  0
    6.4516   -0.8530   19.0496 H   0  0  0  0  0  0
    7.8897   -3.4815   16.2263 H   0  0  0  0  0  0
    8.9877    0.2759   22.7424 H   0  0  0  0  0  0
    5.5076   -1.7681   27.1165 H   0  0  0  0  0  0
    6.0136    0.6235   23.6054 H   0  0  0  0  0  0
    7.8698   -2.5293   26.9235 H   0  0  0  0  0  0
    9.2556   -1.7726   25.0334 H   0  0  0  0  0  0
  1  3  1  0  0  0
  1  4  1  0  0  0
  1 18  1  0  0  0
  2  9  1  0  0  0
  2 12  1  0  0  0
  2 16  2  0  0  0
  3  9  1  0  0  0
  3 15  2  0  0  0
  4  5  1  0  0  0
  4  7  2  0  0  0
  5  6  2  0  0  0
  5 19  1  0  0  0
  6  8  1  0  0  0
  6 20  1  0  0  0
  7 10  1  0  0  0
  7 21  1  0  0  0
  8 10  2  0  0  0
  8 22  1  0  0  0
  9 23  1  0  0  0
 11 13  1  0  0  0
 11 14  2  0  0  0
 11 24  1  0  0  0
 12 13  2  0  0  0
 12 25  1  0  0  0
 13 17  1  0  0  0
 14 16  1  0  0  0
 14 26  1  0  0  0
 16 27  1  0  0  0
M  END
> <s_m_entry_id>
242

> <s_m_entry_name>
7GDG_ligand.1

> <s_pdb_PDB_TITLE>
GROUP DEPOSITION SARS-COV-2 MAIN PROTEASE IN COMPLEX WITH INHIBITORS FROM THE COVID MOONSHOT -- CRYSTAL STRUCTURE OF SARS-COV-2 MAIN PROTEASE IN COMPLEX WITH DAR-DIA-23AA0B97-14 (MPRO-X10996)

> <s_pdb_PDB_ID>
7GDG

> <s_m_Source_File>
7GDG_ligand.sdf

> <s_user_Compound_ID>
DAR-DIA-23aa0b97-14

> <s_user_Monomer-Dimer>
Monomer

> <s_user_xcode>
x10996

$$$$
