7GDI_ligand
                    3D
 Schrodinger Suite 2021-2.
 31 32  0  0  1  0            999 V2000
    7.9202   -0.6788   22.4200 N   0  0  0  0  0  0
    7.4205   -1.4574   18.4264 C   0  0  0  0  0  0
    8.6498   -1.6460   19.0324 C   0  0  0  0  0  0
    9.0182   -0.8891   20.2873 C   0  0  0  0  0  0
    8.1989   -1.5125   21.3996 C   0  0  0  0  0  0
    7.3265   -1.0074   23.6555 C   0  0  0  0  0  0
    6.9328   -2.5725   25.4369 C   0  0  0  0  0  0
    6.4190   -0.1233   24.2271 C   0  0  0  0  0  0
    7.6057   -2.2200   24.2778 C   0  0  0  0  0  0
    6.9910   -2.1374   17.3589 N   0  0  0  0  0  0
    5.7909   -0.4832   25.4013 C   0  0  0  0  0  0
    9.5166   -2.5994   18.4735 C   0  0  0  0  0  0
    6.0062   -1.7094   25.9976 C   0  0  0  0  0  0
   10.8644   -2.9134   19.0728 C   0  0  0  0  0  0
    9.0847   -3.2940   17.3488 C   0  0  0  0  0  0
    7.8497   -2.6892   21.3609 O   0  0  0  0  0  0
    7.8256   -3.0460   16.8406 C   0  0  0  0  0  0
    4.8288    0.7004   26.2329 Cl  0  0  0  0  0  0
    8.1409    0.3038   22.3441 H   0  0  0  0  0  0
    6.7346   -0.7191   18.8147 H   0  0  0  0  0  0
    8.7372    0.1579   20.1740 H   0  0  0  0  0  0
   10.0786   -1.0295   20.4965 H   0  0  0  0  0  0
    7.1298   -3.5244   25.9074 H   0  0  0  0  0  0
    6.2169    0.8253   23.7520 H   0  0  0  0  0  0
    8.3458   -2.8848   23.8574 H   0  0  0  0  0  0
    5.4663   -2.0001   26.8866 H   0  0  0  0  0  0
   11.3588   -3.6792   18.4751 H   0  0  0  0  0  0
   11.4762   -2.0114   19.0850 H   0  0  0  0  0  0
   10.7336   -3.2769   20.0920 H   0  0  0  0  0  0
    9.7327   -4.0203   16.8808 H   0  0  0  0  0  0
    7.5246   -3.6281   15.9821 H   0  0  0  0  0  0
  1  5  1  0  0  0
  1  6  1  0  0  0
  1 19  1  0  0  0
  2  3  1  0  0  0
  2 10  2  0  0  0
  2 20  1  0  0  0
  3  4  1  0  0  0
  3 12  2  0  0  0
  4  5  1  0  0  0
  4 21  1  0  0  0
  4 22  1  0  0  0
  5 16  2  0  0  0
  6  8  1  0  0  0
  6  9  2  0  0  0
  7  9  1  0  0  0
  7 13  2  0  0  0
  7 23  1  0  0  0
  8 11  2  0  0  0
  8 24  1  0  0  0
  9 25  1  0  0  0
 10 17  1  0  0  0
 11 13  1  0  0  0
 11 18  1  0  0  0
 12 14  1  0  0  0
 12 15  1  0  0  0
 13 26  1  0  0  0
 14 27  1  0  0  0
 14 28  1  0  0  0
 14 29  1  0  0  0
 15 17  2  0  0  0
 15 30  1  0  0  0
 17 31  1  0  0  0
M  END
> <s_m_entry_id>
243

> <s_m_entry_name>
7GDI_ligand.1

> <s_pdb_PDB_TITLE>
GROUP DEPOSITION SARS-COV-2 MAIN PROTEASE IN COMPLEX WITH INHIBITORS FROM THE COVID MOONSHOT -- CRYSTAL STRUCTURE OF SARS-COV-2 MAIN PROTEASE IN COMPLEX WITH EDJ-MED-49816E9B-1 (MPRO-X11011)

> <s_pdb_PDB_ID>
7GDI

> <s_m_Source_File>
7GDI_ligand.sdf

> <s_user_Compound_ID>
EDJ-MED-49816e9b-1

> <s_user_Monomer-Dimer>
Monomer

> <s_user_xcode>
x11011

$$$$
