7GDJ_ligand
                    3D
 Schrodinger Suite 2021-2.
 30 31  0  0  1  0            999 V2000
    7.1309   -2.1831   17.5023 N   0  0  0  0  0  0
    8.5256   -1.7236   19.3950 C   0  0  0  0  0  0
    8.1745   -1.3412   21.8127 C   0  0  0  0  0  0
    8.6147   -0.4566   22.9637 C   0  0  0  0  0  0
    7.7215   -0.6698   24.1678 C   0  0  0  0  0  0
    8.0969   -1.5337   25.1902 C   0  0  0  0  0  0
    5.9305   -1.3268   26.2156 C   0  0  0  0  0  0
    4.0377    0.3815   25.3148 Cl  0  0  0  0  0  0
    5.5829   -0.4260   25.2292 C   0  0  0  0  0  0
    7.2099   -1.8654   26.2036 C   0  0  0  0  0  0
    6.4537   -0.0942   24.2065 C   0  0  0  0  0  0
    7.3478   -2.2368   21.9686 O   0  0  0  0  0  0
    8.7628   -1.0659   20.6284 N   0  0  0  0  0  0
    9.5210   -2.5455   18.8312 C   0  0  0  0  0  0
   10.8220   -2.8212   19.5411 C   0  0  0  0  0  0
    7.3437   -1.5966   18.6681 C   0  0  0  0  0  0
    8.1055   -2.9686   16.9537 N   0  0  0  0  0  0
    9.2549   -3.1358   17.6000 C   0  0  0  0  0  0
    8.5674    0.5883   22.6571 H   0  0  0  0  0  0
    9.6450   -0.6929   23.2296 H   0  0  0  0  0  0
    9.0907   -1.9563   25.2025 H   0  0  0  0  0  0
    5.2129   -1.5990   26.9755 H   0  0  0  0  0  0
    7.5138   -2.5445   26.9864 H   0  0  0  0  0  0
    6.1553    0.6067   23.4409 H   0  0  0  0  0  0
    9.4300   -0.3092   20.6770 H   0  0  0  0  0  0
   11.4396   -3.4768   18.9273 H   0  0  0  0  0  0
   11.3488   -1.8826   19.7129 H   0  0  0  0  0  0
   10.6196   -3.3039   20.4972 H   0  0  0  0  0  0
    6.5768   -0.9769   19.1088 H   0  0  0  0  0  0
    9.9987   -3.7612   17.1289 H   0  0  0  0  0  0
  1 16  1  0  0  0
  1 17  2  0  0  0
  2 13  1  0  0  0
  2 14  1  0  0  0
  2 16  2  0  0  0
  3  4  1  0  0  0
  3 12  2  0  0  0
  3 13  1  0  0  0
  4  5  1  0  0  0
  4 19  1  0  0  0
  4 20  1  0  0  0
  5  6  1  0  0  0
  5 11  2  0  0  0
  6 10  2  0  0  0
  6 21  1  0  0  0
  7  9  2  0  0  0
  7 10  1  0  0  0
  7 22  1  0  0  0
  8  9  1  0  0  0
  9 11  1  0  0  0
 10 23  1  0  0  0
 11 24  1  0  0  0
 13 25  1  0  0  0
 14 15  1  0  0  0
 14 18  2  0  0  0
 15 26  1  0  0  0
 15 27  1  0  0  0
 15 28  1  0  0  0
 16 29  1  0  0  0
 17 18  1  0  0  0
 18 30  1  0  0  0
M  END
> <s_m_entry_id>
244

> <s_m_entry_name>
7GDJ_ligand.1

> <s_pdb_PDB_TITLE>
GROUP DEPOSITION SARS-COV-2 MAIN PROTEASE IN COMPLEX WITH INHIBITORS FROM THE COVID MOONSHOT -- CRYSTAL STRUCTURE OF SARS-COV-2 MAIN PROTEASE IN COMPLEX WITH EDG-MED-0DA5AD92-16 (MPRO-X11013)

> <s_pdb_PDB_ID>
7GDJ

> <s_m_Source_File>
7GDJ_ligand.sdf

> <s_user_Compound_ID>
EDG-MED-0da5ad92-16

> <s_user_Monomer-Dimer>
Monomer

> <s_user_xcode>
x11013

$$$$
