7GDK_ligand
                    3D
 Schrodinger Suite 2021-2.
 29 30  0  0  1  0            999 V2000
    6.8584   -1.9552   17.3881 N   0  0  0  0  0  0
    8.1936   -1.4695   21.5848 C   0  0  0  0  0  0
    8.7765   -0.6899   22.7465 C   0  0  0  0  0  0
    7.9166   -0.8642   23.9747 C   0  0  0  0  0  0
    8.2750   -1.7636   24.9679 C   0  0  0  0  0  0
    7.3968   -2.0734   25.9933 C   0  0  0  0  0  0
    5.8200   -0.5437   25.0914 C   0  0  0  0  0  0
    4.3003    0.2977   25.2112 Cl  0  0  0  0  0  0
    6.1466   -1.4773   26.0472 C   0  0  0  0  0  0
    6.6828   -0.2248   24.0615 C   0  0  0  0  0  0
    7.3253   -2.3262   21.7384 O   0  0  0  0  0  0
    8.6988   -1.1348   20.3604 N   0  0  0  0  0  0
    8.2014   -1.6719   19.1568 C   0  0  0  0  0  0
    8.7853   -2.6063   18.3340 C   0  0  0  0  0  0
   10.0313   -3.4187   18.4831 C   0  0  0  0  0  0
    7.0078   -1.3036   18.5347 C   0  0  0  0  0  0
    7.9647   -2.7484   17.2793 N   0  0  0  0  0  0
    6.0403   -1.7936   16.8183 H   0  0  0  0  0  0
    8.8267    0.3672   22.4855 H   0  0  0  0  0  0
    9.7844   -1.0486   22.9551 H   0  0  0  0  0  0
    9.2483   -2.2312   24.9473 H   0  0  0  0  0  0
    7.6850   -2.7822   26.7554 H   0  0  0  0  0  0
    5.4521   -1.7487   26.8285 H   0  0  0  0  0  0
    6.4054    0.5157   23.3258 H   0  0  0  0  0  0
    9.4616   -0.4763   20.2917 H   0  0  0  0  0  0
   10.1582   -4.0544   17.6067 H   0  0  0  0  0  0
   10.8901   -2.7540   18.5765 H   0  0  0  0  0  0
    9.9555   -4.0410   19.3747 H   0  0  0  0  0  0
    6.2536   -0.6021   18.8594 H   0  0  0  0  0  0
  1 16  1  0  0  0
  1 17  1  0  0  0
  1 18  1  0  0  0
  2  3  1  0  0  0
  2 11  2  0  0  0
  2 12  1  0  0  0
  3  4  1  0  0  0
  3 19  1  0  0  0
  3 20  1  0  0  0
  4  5  1  0  0  0
  4 10  2  0  0  0
  5  6  2  0  0  0
  5 21  1  0  0  0
  6  9  1  0  0  0
  6 22  1  0  0  0
  7  8  1  0  0  0
  7  9  2  0  0  0
  7 10  1  0  0  0
  9 23  1  0  0  0
 10 24  1  0  0  0
 12 13  1  0  0  0
 12 25  1  0  0  0
 13 14  1  0  0  0
 13 16  2  0  0  0
 14 15  1  0  0  0
 14 17  2  0  0  0
 15 26  1  0  0  0
 15 27  1  0  0  0
 15 28  1  0  0  0
 16 29  1  0  0  0
M  END
> <s_m_entry_id>
245

> <s_m_entry_name>
7GDK_ligand.1

> <s_pdb_PDB_TITLE>
GROUP DEPOSITION SARS-COV-2 MAIN PROTEASE IN COMPLEX WITH INHIBITORS FROM THE COVID MOONSHOT -- CRYSTAL STRUCTURE OF SARS-COV-2 MAIN PROTEASE IN COMPLEX WITH EDG-MED-0DA5AD92-21 (MPRO-X11025)

> <s_pdb_PDB_ID>
7GDK

> <s_m_Source_File>
7GDK_ligand.sdf

> <s_user_Compound_ID>
EDG-MED-0da5ad92-21

> <s_user_Monomer-Dimer>
Monomer

> <s_user_xcode>
x11025

$$$$
