7GDL_ligand
                    3D
 Schrodinger Suite 2021-2.
 34 35  0  0  1  0            999 V2000
    7.0454   -2.1296   17.5694 N   0  0  0  0  0  0
    7.7597   -1.8969   25.1301 C   0  0  0  0  0  0
    6.8375   -2.2083   26.1190 C   0  0  0  0  0  0
    5.6050   -1.5737   26.1488 C   0  0  0  0  0  0
    5.3275   -0.6262   25.1827 C   0  0  0  0  0  0
    6.2281   -0.3176   24.1851 C   0  0  0  0  0  0
    7.3136   -1.5733   18.7542 C   0  0  0  0  0  0
    9.5293   -2.5286   18.8231 C   0  0  0  0  0  0
    8.7136   -1.0357   20.6373 N   0  0  0  0  0  0
    8.0079   -2.8698   17.0069 C   0  0  0  0  0  0
    8.1795   -1.4437   21.8172 C   0  0  0  0  0  0
    8.4570   -0.6228   23.0633 C   0  0  0  0  0  0
    8.5332   -1.7447   19.4070 C   0  0  0  0  0  0
    9.2430   -3.0882   17.5830 C   0  0  0  0  0  0
   10.8491   -2.8013   19.5006 C   0  0  0  0  0  0
    9.4595    0.2226   20.5685 C   0  0  0  0  0  0
    7.4771   -2.4464   21.8929 O   0  0  0  0  0  0
    7.4663   -0.9492   24.1569 C   0  0  0  0  0  0
    3.8580    0.2946   25.2959 Cl  0  0  0  0  0  0
    8.7187   -2.3930   25.1106 H   0  0  0  0  0  0
    7.0786   -2.9471   26.8689 H   0  0  0  0  0  0
    4.8871   -1.8241   26.9158 H   0  0  0  0  0  0
    5.9700    0.4114   23.4311 H   0  0  0  0  0  0
    6.5703   -0.9621   19.2444 H   0  0  0  0  0  0
    7.8392   -3.3362   16.0475 H   0  0  0  0  0  0
    8.3934    0.4379   22.8207 H   0  0  0  0  0  0
    9.4677   -0.8288   23.4159 H   0  0  0  0  0  0
    9.9846   -3.6890   17.0775 H   0  0  0  0  0  0
   11.4635   -3.4332   18.8594 H   0  0  0  0  0  0
   11.3655   -1.8590   19.6837 H   0  0  0  0  0  0
   10.6732   -3.3089   20.4490 H   0  0  0  0  0  0
    9.8097    0.3827   19.5488 H   0  0  0  0  0  0
    8.8100    1.0470   20.8628 H   0  0  0  0  0  0
   10.3147    0.1759   21.2428 H   0  0  0  0  0  0
  1  7  1  0  0  0
  1 10  2  0  0  0
  2  3  1  0  0  0
  2 18  2  0  0  0
  2 20  1  0  0  0
  3  4  2  0  0  0
  3 21  1  0  0  0
  4  5  1  0  0  0
  4 22  1  0  0  0
  5  6  2  0  0  0
  5 19  1  0  0  0
  6 18  1  0  0  0
  6 23  1  0  0  0
  7 13  2  0  0  0
  7 24  1  0  0  0
  8 13  1  0  0  0
  8 14  2  0  0  0
  8 15  1  0  0  0
  9 11  1  0  0  0
  9 13  1  0  0  0
  9 16  1  0  0  0
 10 14  1  0  0  0
 10 25  1  0  0  0
 11 12  1  0  0  0
 11 17  2  0  0  0
 12 18  1  0  0  0
 12 26  1  0  0  0
 12 27  1  0  0  0
 14 28  1  0  0  0
 15 29  1  0  0  0
 15 30  1  0  0  0
 15 31  1  0  0  0
 16 32  1  0  0  0
 16 33  1  0  0  0
 16 34  1  0  0  0
M  END
> <s_m_entry_id>
246

> <s_m_entry_name>
7GDL_ligand.1

> <s_pdb_PDB_TITLE>
GROUP DEPOSITION SARS-COV-2 MAIN PROTEASE IN COMPLEX WITH INHIBITORS FROM THE COVID MOONSHOT -- CRYSTAL STRUCTURE OF SARS-COV-2 MAIN PROTEASE IN COMPLEX WITH JAN-GHE-83B26C96-15 (MPRO-X11041)

> <s_pdb_PDB_ID>
7GDL

> <s_m_Source_File>
7GDL_ligand.sdf

> <s_user_Compound_ID>
JAN-GHE-83b26c96-15

> <s_user_Monomer-Dimer>
Monomer

> <s_user_xcode>
x11041

$$$$
