7GDM_ligand
                    3D
 Schrodinger Suite 2021-2.
 40 41  0  0  1  0            999 V2000
    6.9950   -1.9017   17.9569 N   0  0  0  0  0  0
    6.9403   -0.7528   27.1589 C   0  0  0  0  0  0
    5.9546    0.3297   26.7540 C   0  0  0  0  0  0
    5.3818    0.0428   25.3723 C   0  0  0  0  0  0
    6.4897   -0.1011   24.3257 C   0  0  0  0  0  0
    8.0087   -1.7865   22.3033 C   0  0  0  0  0  0
    7.2132   -1.4176   19.1842 C   0  0  0  0  0  0
    9.4097   -2.4086   19.3002 C   0  0  0  0  0  0
    8.5453   -1.1619   21.2360 N   0  0  0  0  0  0
    7.9776   -2.6073   17.3894 C   0  0  0  0  0  0
    8.6154   -1.4124   23.6517 C   0  0  1  0  0  0
    7.4989   -1.1942   24.7078 C   0  0  0  0  0  0
    8.3878   -1.6360   19.9046 C   0  0  0  0  0  0
    9.1839   -2.8724   18.0089 C   0  0  0  0  0  0
   10.6693   -2.7918   20.0343 C   0  0  0  0  0  0
    9.5661   -2.5508   24.0280 C   0  0  0  0  0  0
    7.1727   -2.6713   22.2108 O   0  0  0  0  0  0
    8.0494   -0.9177   26.1169 C   0  0  0  0  0  0
    6.4116   -1.6984   27.2787 H   0  0  0  0  0  0
    7.3825   -0.4988   28.1223 H   0  0  0  0  0  0
    6.4599    1.2955   26.7440 H   0  0  0  0  0  0
    5.1438    0.3729   27.4812 H   0  0  0  0  0  0
    4.7116    0.8520   25.0822 H   0  0  0  0  0  0
    4.7939   -0.8744   25.4066 H   0  0  0  0  0  0
    7.0101    0.8503   24.2154 H   0  0  0  0  0  0
    6.0465   -0.3388   23.3587 H   0  0  0  0  0  0
    6.4567   -0.8204   19.6716 H   0  0  0  0  0  0
    9.0867   -0.3189   21.3638 H   0  0  0  0  0  0
    7.8510   -3.0049   16.3933 H   0  0  0  0  0  0
    9.1877   -0.4912   23.5421 H   0  0  0  0  0  0
    6.9398   -2.1279   24.7686 H   0  0  0  0  0  0
    9.9492   -3.4361   17.4962 H   0  0  0  0  0  0
   11.3080   -3.3822   19.3773 H   0  0  0  0  0  0
   11.1996   -1.8906   20.3421 H   0  0  0  0  0  0
   10.4124   -3.3803   20.9152 H   0  0  0  0  0  0
   10.0305   -2.3341   24.9900 H   0  0  0  0  0  0
    9.0070   -3.4840   24.0971 H   0  0  0  0  0  0
   10.3390   -2.6465   23.2654 H   0  0  0  0  0  0
    8.7082   -1.7333   26.4150 H   0  0  0  0  0  0
    8.6634   -0.0173   26.0958 H   0  0  0  0  0  0
  1  7  1  0  0  0
  1 10  2  0  0  0
  2  3  1  0  0  0
  2 18  1  0  0  0
  2 19  1  0  0  0
  2 20  1  0  0  0
  3  4  1  0  0  0
  3 21  1  0  0  0
  3 22  1  0  0  0
  4  5  1  0  0  0
  4 23  1  0  0  0
  4 24  1  0  0  0
  5 12  1  0  0  0
  5 25  1  0  0  0
  5 26  1  0  0  0
  6  9  1  0  0  0
  6 11  1  0  0  0
  6 17  2  0  0  0
  7 13  2  0  0  0
  7 27  1  0  0  0
  8 13  1  0  0  0
  8 14  2  0  0  0
  8 15  1  0  0  0
  9 13  1  0  0  0
  9 28  1  0  0  0
 10 14  1  0  0  0
 10 29  1  0  0  0
 11 12  1  0  0  0
 11 16  1  0  0  0
 11 30  1  0  0  0
 12 18  1  0  0  0
 12 31  1  0  0  0
 14 32  1  0  0  0
 15 33  1  0  0  0
 15 34  1  0  0  0
 15 35  1  0  0  0
 16 36  1  0  0  0
 16 37  1  0  0  0
 16 38  1  0  0  0
 18 39  1  0  0  0
 18 40  1  0  0  0
M  END
> <s_m_entry_id>
247

> <s_m_entry_name>
7GDM_ligand.1

> <s_pdb_PDB_TITLE>
GROUP DEPOSITION SARS-COV-2 MAIN PROTEASE IN COMPLEX WITH INHIBITORS FROM THE COVID MOONSHOT -- CRYSTAL STRUCTURE OF SARS-COV-2 MAIN PROTEASE IN COMPLEX WITH TRY-UNI-714A760B-16 (MPRO-X11044)

> <s_pdb_PDB_ID>
7GDM

> <s_m_Source_File>
7GDM_ligand.sdf

> <s_user_Compound_ID>
TRY-UNI-714a760b-16

> <s_user_Monomer-Dimer>
Monomer

> <s_user_xcode>
x11044

$$$$
