7GDN_ligand
                    3D
 Schrodinger Suite 2021-2.
 37 40  0  0  1  0            999 V2000
    6.5819   -1.5743   19.0240 N   0  0  0  0  0  0
    8.6550   -2.0839   18.4922 N   0  0  0  0  0  0
   10.6236   -3.5775   17.9302 C   0  0  0  0  0  0
   10.5554   -3.4947   19.4202 C   0  0  0  0  0  0
    8.7586   -1.0858   23.0796 C   0  0  1  0  0  0
   10.0150   -1.8830   23.5241 C   0  0  0  0  0  0
   10.1995   -1.8169   25.0242 C   0  0  0  0  0  0
    6.8153   -1.7452   26.2892 C   0  0  0  0  0  0
    6.4968   -0.3100   23.9360 C   0  0  0  0  0  0
    7.5303   -2.8265   21.9281 O   0  0  0  0  0  0
    8.1184   -1.7515   21.8571 C   0  0  0  0  0  0
    7.6902   -0.9937   24.1524 C   0  0  0  0  0  0
    5.4774   -0.3471   24.8737 C   0  0  0  0  0  0
    5.6255   -1.0765   26.0309 C   0  0  0  0  0  0
    7.8473   -1.6769   25.3628 C   0  0  0  0  0  0
    9.0289   -2.2736   25.7365 O   0  0  0  0  0  0
    8.2987   -1.0949   20.6738 N   0  0  0  0  0  0
    7.8319   -1.5343   19.4452 C   0  0  0  0  0  0
    7.8206   -2.4423   17.4753 C   0  0  0  0  0  0
    6.5864   -2.1648   17.7656 N   0  0  0  0  0  0
   10.1003   -2.3492   18.5873 C   0  0  0  0  0  0
    9.6785   -4.0876   17.7438 H   0  0  0  0  0  0
   11.6591   -3.2679   17.7890 H   0  0  0  0  0  0
   11.5753   -3.1663   19.6203 H   0  0  0  0  0  0
    9.5948   -3.9860   19.5751 H   0  0  0  0  0  0
    9.0654   -0.0763   22.8059 H   0  0  0  0  0  0
   10.8972   -1.4741   23.0316 H   0  0  0  0  0  0
    9.9119   -2.9237   23.2167 H   0  0  0  0  0  0
   10.4248   -0.7914   25.3168 H   0  0  0  0  0  0
   11.0581   -2.4240   25.3109 H   0  0  0  0  0  0
    6.9299   -2.3101   27.2025 H   0  0  0  0  0  0
    6.3570    0.2584   23.0284 H   0  0  0  0  0  0
    4.5617    0.1980   24.6978 H   0  0  0  0  0  0
    4.8122   -1.1280   26.7396 H   0  0  0  0  0  0
    8.8049   -0.2211   20.6531 H   0  0  0  0  0  0
    8.2228   -2.8931   16.5801 H   0  0  0  0  0  0
   10.7532   -1.4766   18.5689 H   0  0  0  0  0  0
  1 18  2  0  0  0
  1 20  1  0  0  0
  2 18  1  0  0  0
  2 19  1  0  0  0
  2 21  1  0  0  0
  3  4  1  0  0  0
  3 21  1  0  0  0
  3 22  1  0  0  0
  3 23  1  0  0  0
  4 21  1  0  0  0
  4 24  1  0  0  0
  4 25  1  0  0  0
  5  6  1  0  0  0
  5 11  1  0  0  0
  5 12  1  0  0  0
  5 26  1  0  0  0
  6  7  1  0  0  0
  6 27  1  0  0  0
  6 28  1  0  0  0
  7 16  1  0  0  0
  7 29  1  0  0  0
  7 30  1  0  0  0
  8 14  1  0  0  0
  8 15  2  0  0  0
  8 31  1  0  0  0
  9 12  2  0  0  0
  9 13  1  0  0  0
  9 32  1  0  0  0
 10 11  2  0  0  0
 11 17  1  0  0  0
 12 15  1  0  0  0
 13 14  2  0  0  0
 13 33  1  0  0  0
 14 34  1  0  0  0
 15 16  1  0  0  0
 17 18  1  0  0  0
 17 35  1  0  0  0
 19 20  2  0  0  0
 19 36  1  0  0  0
 21 37  1  0  0  0
M  END
> <s_m_entry_id>
248

> <s_m_entry_name>
7GDN_ligand.1

> <s_pdb_PDB_TITLE>
GROUP DEPOSITION SARS-COV-2 MAIN PROTEASE IN COMPLEX WITH INHIBITORS FROM THE COVID MOONSHOT -- CRYSTAL STRUCTURE OF SARS-COV-2 MAIN PROTEASE IN COMPLEX WITH EDJ-MED-0E996074-1 (MPRO-X11159)

> <s_pdb_PDB_ID>
7GDN

> <s_m_Source_File>
7GDN_ligand.sdf

> <s_user_Compound_ID>
EDJ-MED-0e996074-1

> <s_user_Monomer-Dimer>
Monomer

> <s_user_xcode>
x11159

$$$$
