7GDO_ligand
                    3D
 Schrodinger Suite 2021-2.
 50 53  0  0  1  0            999 V2000
    8.1295   -1.4029   23.5845 N   0  0  0  0  0  0
   11.1907    3.6346   25.9877 N   0  0  0  0  0  0
    7.5060   -2.0703   24.7221 C   0  0  0  0  0  0
    7.7739   -1.8018   22.3294 C   0  0  0  0  0  0
    8.0903   -0.8629   21.1802 C   0  0  0  0  0  0
    8.1227   -1.5603   19.8411 C   0  0  0  0  0  0
    9.2792   -2.1542   19.3558 C   0  0  0  0  0  0
    8.1298   -2.6623   17.3445 C   0  0  0  0  0  0
   10.3907   -0.6566   24.1466 C   0  0  0  0  0  0
   10.8409    1.6674   24.6541 C   0  0  0  0  0  0
    8.6407    0.9785   23.9158 C   0  0  0  0  0  0
   13.9332    3.6319   25.5270 C   0  0  0  0  0  0
   13.3752    4.5709   26.3684 C   0  0  0  0  0  0
   12.0061    4.5378   26.5628 C   0  0  0  0  0  0
    7.1941   -2.8626   22.1268 O   0  0  0  0  0  0
    7.0090   -1.5736   19.0163 C   0  0  0  0  0  0
    6.9928   -2.1091   17.7890 N   0  0  0  0  0  0
    9.2911   -2.7115   18.0904 C   0  0  0  0  0  0
    6.8033   -1.1059   25.6302 C   0  0  0  0  0  0
    5.5267   -0.4868   25.4619 C   0  0  0  0  0  0
    5.4093    0.3843   26.5029 C   0  0  0  0  0  0
    7.4247   -0.6458   26.7289 N   0  0  0  0  0  0
    6.5628    0.2701   27.2465 N   0  0  0  0  0  0
    6.9377    1.0053   28.4488 C   0  0  0  0  0  0
    9.0644   -0.3515   23.8471 C   0  0  0  0  0  0
    9.5218    1.9690   24.3145 C   0  0  0  0  0  0
   11.2613    0.3410   24.5456 C   0  0  0  0  0  0
   11.7517    2.7140   25.1794 C   0  0  0  0  0  0
   13.1203    2.6922   24.9149 C   0  0  0  0  0  0
    8.2659   -2.6112   25.2860 H   0  0  0  0  0  0
    6.7942   -2.8127   24.3611 H   0  0  0  0  0  0
    9.0510   -0.3807   21.3607 H   0  0  0  0  0  0
    7.3518   -0.0617   21.1534 H   0  0  0  0  0  0
   10.1696   -2.1810   19.9664 H   0  0  0  0  0  0
    8.1681   -3.0989   16.3574 H   0  0  0  0  0  0
   10.7418   -1.6749   24.0674 H   0  0  0  0  0  0
    7.6240    1.2353   23.6577 H   0  0  0  0  0  0
   14.9984    3.6319   25.3485 H   0  0  0  0  0  0
   14.0040    5.3032   26.8530 H   0  0  0  0  0  0
   11.5985    5.2929   27.2187 H   0  0  0  0  0  0
    6.0821   -1.1337   19.3535 H   0  0  0  0  0  0
   10.1926   -3.1691   17.7104 H   0  0  0  0  0  0
    4.8990   -0.7619   24.6272 H   0  0  0  0  0  0
    4.5206    0.9899   26.6027 H   0  0  0  0  0  0
    7.9187    0.6724   28.7878 H   0  0  0  0  0  0
    6.9733    2.0719   28.2268 H   0  0  0  0  0  0
    6.2018    0.8220   29.2317 H   0  0  0  0  0  0
    9.1723    2.9898   24.3601 H   0  0  0  0  0  0
   12.2876    0.1002   24.7801 H   0  0  0  0  0  0
   13.5494    1.9604   24.2465 H   0  0  0  0  0  0
  1  3  1  0  0  0
  1  4  1  0  0  0
  1 25  1  0  0  0
  2 14  1  0  0  0
  2 28  2  0  0  0
  3 19  1  0  0  0
  3 30  1  0  0  0
  3 31  1  0  0  0
  4  5  1  0  0  0
  4 15  2  0  0  0
  5  6  1  0  0  0
  5 32  1  0  0  0
  5 33  1  0  0  0
  6  7  1  0  0  0
  6 16  2  0  0  0
  7 18  2  0  0  0
  7 34  1  0  0  0
  8 17  2  0  0  0
  8 18  1  0  0  0
  8 35  1  0  0  0
  9 25  1  0  0  0
  9 27  2  0  0  0
  9 36  1  0  0  0
 10 26  2  0  0  0
 10 27  1  0  0  0
 10 28  1  0  0  0
 11 25  2  0  0  0
 11 26  1  0  0  0
 11 37  1  0  0  0
 12 13  1  0  0  0
 12 29  2  0  0  0
 12 38  1  0  0  0
 13 14  2  0  0  0
 13 39  1  0  0  0
 14 40  1  0  0  0
 16 17  1  0  0  0
 16 41  1  0  0  0
 18 42  1  0  0  0
 19 20  1  0  0  0
 19 22  2  0  0  0
 20 21  2  0  0  0
 20 43  1  0  0  0
 21 23  1  0  0  0
 21 44  1  0  0  0
 22 23  1  0  0  0
 23 24  1  0  0  0
 24 45  1  0  0  0
 24 46  1  0  0  0
 24 47  1  0  0  0
 26 48  1  0  0  0
 27 49  1  0  0  0
 28 29  1  0  0  0
 29 50  1  0  0  0
M  END
> <s_m_entry_id>
343

> <s_m_entry_name>
7gdo.pdb.1_ligand

> <s_pdb_PDB_TITLE>
GROUP DEPOSITION SARS-COV-2 MAIN PROTEASE IN COMPLEX WITH INHIBITORS FROM THE COVID MOONSHOT -- CRYSTAL STRUCTURE OF SARS-COV-2 MAIN PROTEASE IN COMPLEX WITH ALP-POS-C0C213C9-14 (MPRO-X11164)

> <s_pdb_PDB_ID>
7GDO

> <s_m_Source_File>
7gdo.pdb.gz

> <s_user_Compound_ID>
ALP-POS-c0c213c9-14

> <s_user_Monomer-Dimer>
Monomer

> <s_user_xcode>
Mpro-x11164

$$$$
