7GDP_ligand
                    3D
 Schrodinger Suite 2021-2.
 34 37  0  0  1  0            999 V2000
    6.6380   -1.6518   18.6907 N   0  0  0  0  0  0
    8.7451   -2.2322   18.3489 N   0  0  0  0  0  0
    9.8486   -1.4361   23.4125 C   0  0  0  0  0  0
    8.6339   -0.7741   22.7691 C   0  0  1  0  0  0
    8.1465   -1.6383   21.6046 C   0  0  0  0  0  0
    7.8598   -1.6037   19.1917 C   0  0  0  0  0  0
    7.9648   -2.6588   17.3064 C   0  0  0  0  0  0
   10.7816   -3.7541   18.1372 C   0  0  0  0  0  0
    6.4211   -0.1553   24.0805 C   0  0  0  0  0  0
    7.7125   -2.7740   21.7626 O   0  0  0  0  0  0
    9.3383   -2.1310   24.5843 O   0  0  0  0  0  0
    7.6368   -0.8012   23.9085 C   0  0  0  0  0  0
    8.0568   -1.7110   24.8565 C   0  0  0  0  0  0
    7.2799   -2.0465   25.9533 C   0  0  0  0  0  0
    6.0552   -1.4209   26.1078 C   0  0  0  0  0  0
    5.6577   -0.4649   25.1866 C   0  0  0  0  0  0
    4.2119    0.4427   25.4836 Cl  0  0  0  0  0  0
    8.2499   -1.0551   20.3805 N   0  0  0  0  0  0
    6.7172   -2.3315   17.4860 N   0  0  0  0  0  0
   10.1944   -2.4502   18.5565 C   0  0  0  0  0  0
   10.6217   -3.4339   19.5915 C   0  0  0  0  0  0
   10.5552   -0.6679   23.7267 H   0  0  0  0  0  0
   10.2751   -2.1610   22.7192 H   0  0  0  0  0  0
    8.8528    0.2449   22.4501 H   0  0  0  0  0  0
    8.4116   -3.1922   16.4805 H   0  0  0  0  0  0
   11.8173   -3.4408   18.0061 H   0  0  0  0  0  0
    9.8598   -4.3151   17.9834 H   0  0  0  0  0  0
    6.0895    0.5736   23.3559 H   0  0  0  0  0  0
    7.6346   -2.7802   26.6621 H   0  0  0  0  0  0
    5.4182   -1.6789   26.9409 H   0  0  0  0  0  0
    8.6460   -0.1301   20.2936 H   0  0  0  0  0  0
   10.8331   -1.5754   18.4341 H   0  0  0  0  0  0
   11.6210   -3.0474   19.7921 H   0  0  0  0  0  0
    9.6634   -3.9217   19.7694 H   0  0  0  0  0  0
  1  6  2  0  0  0
  1 19  1  0  0  0
  2  6  1  0  0  0
  2  7  1  0  0  0
  2 20  1  0  0  0
  3  4  1  0  0  0
  3 11  1  0  0  0
  3 22  1  0  0  0
  3 23  1  0  0  0
  4  5  1  0  0  0
  4 12  1  0  0  0
  4 24  1  0  0  0
  5 10  2  0  0  0
  5 18  1  0  0  0
  6 18  1  0  0  0
  7 19  2  0  0  0
  7 25  1  0  0  0
  8 20  1  0  0  0
  8 21  1  0  0  0
  8 26  1  0  0  0
  8 27  1  0  0  0
  9 12  1  0  0  0
  9 16  2  0  0  0
  9 28  1  0  0  0
 11 13  1  0  0  0
 12 13  2  0  0  0
 13 14  1  0  0  0
 14 15  2  0  0  0
 14 29  1  0  0  0
 15 16  1  0  0  0
 15 30  1  0  0  0
 16 17  1  0  0  0
 18 31  1  0  0  0
 20 21  1  0  0  0
 20 32  1  0  0  0
 21 33  1  0  0  0
 21 34  1  0  0  0
M  END
> <s_m_entry_id>
345

> <s_m_entry_name>
7gdp.pdb.1_ligand

> <s_pdb_PDB_TITLE>
GROUP DEPOSITION SARS-COV-2 MAIN PROTEASE IN COMPLEX WITH INHIBITORS FROM THE COVID MOONSHOT -- CRYSTAL STRUCTURE OF SARS-COV-2 MAIN PROTEASE IN COMPLEX WITH NAU-LAT-8502CAC5-2 (MPRO-X11186)

> <s_pdb_PDB_ID>
7GDP

> <s_m_Source_File>
7gdp.pdb.gz

> <s_user_Compound_ID>
NAU-LAT-8502cac5-2

> <s_user_Monomer-Dimer>
Monomer

> <s_user_xcode>
Mpro-x11186

$$$$
