7GDU_ligand
                    3D
 Schrodinger Suite 2021-2.
 48 50  0  0  1  0            999 V2000
    8.1499   -0.7880   20.8057 N   0  0  0  0  0  0
    7.1007   -1.4567   18.6905 C   0  0  0  0  0  0
    8.2009   -1.4478   19.5507 C   0  0  0  0  0  0
    7.6321   -1.3079   21.9413 C   0  0  0  0  0  0
    7.5100   -0.3203   23.0942 C   0  0  0  0  0  0
    8.2454   -0.7460   24.3781 C   0  0  2  0  0  0
   11.6089   -2.5567   24.5999 C   0  0  0  0  0  0
   10.5381   -0.0279   23.6775 C   0  0  0  0  0  0
    8.5953    1.4867   25.6779 C   0  0  0  0  0  0
    7.3498   -0.1656   26.6852 C   0  0  0  0  0  0
    7.2657   -2.4749   22.0485 O   0  0  0  0  0  0
    7.0814   -2.1005   17.5183 N   0  0  0  0  0  0
    8.1899   -2.7554   17.1584 C   0  0  0  0  0  0
    9.3308   -2.8083   17.9357 C   0  0  0  0  0  0
    9.3582   -2.1538   19.1641 C   0  0  0  0  0  0
   10.5725   -2.2491   20.0518 C   0  0  0  0  0  0
    8.0683    0.1678   25.5675 C   0  0  0  0  0  0
    7.3176    1.1038   27.8400 S   0  0  0  0  0  0
    8.2751    2.1183   26.8705 C   0  0  0  0  0  0
    9.6518   -1.1289   24.0892 N   0  3  1  0  0  0
   11.8528   -0.5556   23.0963 C   0  0  0  0  0  0
   12.5501   -1.4901   24.0695 C   0  0  2  0  0  0
   13.6813   -2.1070   23.4388 O   0  0  0  0  0  0
   10.3072   -1.9440   25.1245 C   0  0  0  0  0  0
    8.5199    0.1471   20.9000 H   0  0  0  0  0  0
    6.2009   -0.9232   18.9591 H   0  0  0  0  0  0
    6.4562   -0.1564   23.3191 H   0  0  0  0  0  0
    7.8769    0.6550   22.7744 H   0  0  0  0  0  0
    7.7631   -1.6776   24.6741 H   0  0  0  0  0  0
   12.0999   -3.1073   25.4023 H   0  0  0  0  0  0
   11.3810   -3.2671   23.8052 H   0  0  0  0  0  0
   10.7507    0.6075   24.5372 H   0  0  0  0  0  0
   10.0323    0.5856   22.9319 H   0  0  0  0  0  0
    9.1832    1.9024   24.8729 H   0  0  0  0  0  0
    6.8849   -1.1377   26.7582 H   0  0  0  0  0  0
    8.2247   -3.2804   16.2152 H   0  0  0  0  0  0
   10.1953   -3.3552   17.5894 H   0  0  0  0  0  0
   11.3420   -2.8389   19.5536 H   0  0  0  0  0  0
   10.9556   -1.2487   20.2530 H   0  0  0  0  0  0
   10.2994   -2.7288   20.9917 H   0  0  0  0  0  0
    8.6326    3.1187   27.0647 H   0  0  0  0  0  0
    9.5954   -1.7323   23.2812 H   0  0  0  0  0  0
   12.5095    0.2830   22.8648 H   0  0  0  0  0  0
   11.6511   -1.0857   22.1655 H   0  0  0  0  0  0
   12.9085   -0.9001   24.9130 H   0  0  0  0  0  0
   14.2724   -1.4278   23.1057 H   0  0  0  0  0  0
   10.5232   -1.3220   25.9932 H   0  0  0  0  0  0
    9.6330   -2.7400   25.4405 H   0  0  0  0  0  0
  1  3  1  0  0  0
  1  4  1  0  0  0
  1 25  1  0  0  0
  2  3  1  0  0  0
  2 12  2  0  0  0
  2 26  1  0  0  0
  3 15  2  0  0  0
  4  5  1  0  0  0
  4 11  2  0  0  0
  5  6  1  0  0  0
  5 27  1  0  0  0
  5 28  1  0  0  0
  6 17  1  0  0  0
  6 20  1  0  0  0
  6 29  1  0  0  0
  7 22  1  0  0  0
  7 24  1  0  0  0
  7 30  1  0  0  0
  7 31  1  0  0  0
  8 20  1  0  0  0
  8 21  1  0  0  0
  8 32  1  0  0  0
  8 33  1  0  0  0
  9 17  1  0  0  0
  9 19  2  0  0  0
  9 34  1  0  0  0
 10 17  2  0  0  0
 10 18  1  0  0  0
 10 35  1  0  0  0
 12 13  1  0  0  0
 13 14  2  0  0  0
 13 36  1  0  0  0
 14 15  1  0  0  0
 14 37  1  0  0  0
 15 16  1  0  0  0
 16 38  1  0  0  0
 16 39  1  0  0  0
 16 40  1  0  0  0
 18 19  1  0  0  0
 19 41  1  0  0  0
 20 24  1  0  0  0
 20 42  1  0  0  0
 21 22  1  0  0  0
 21 43  1  0  0  0
 21 44  1  0  0  0
 22 23  1  0  0  0
 22 45  1  0  0  0
 23 46  1  0  0  0
 24 47  1  0  0  0
 24 48  1  0  0  0
M  CHG  1  20   1
M  END
> <s_m_entry_id>
347

> <s_m_entry_name>
7gdu.pdb.1_ligand

> <s_pdb_PDB_TITLE>
GROUP DEPOSITION SARS-COV-2 MAIN PROTEASE IN COMPLEX WITH INHIBITORS FROM THE COVID MOONSHOT -- CRYSTAL STRUCTURE OF SARS-COV-2 MAIN PROTEASE IN COMPLEX WITH PET-SGC-A8A902D9-1 (MPRO-X11225)

> <s_pdb_PDB_ID>
7GDU

> <s_m_Source_File>
7gdu.pdb.gz

> <s_user_Compound_ID>
PET-SGC-a8a902d9-1

> <s_user_Monomer-Dimer>
Monomer

> <s_user_xcode>
Mpro-x11225

$$$$
