7GDV_ligand
                    3D
 Schrodinger Suite 2021-2.
 37 40  0  0  1  0            999 V2000
    7.0723   -1.3133   18.2116 N   0  0  0  0  0  0
    8.5289   -2.9624   18.5668 N   0  0  0  0  0  0
    9.7906   -1.4498   23.2925 C   0  0  0  0  0  0
    8.5299   -0.8620   22.6747 C   0  0  1  0  0  0
    8.0681   -1.8024   21.5621 C   0  0  0  0  0  0
    7.9951   -1.7566   19.0420 C   0  0  0  0  0  0
    7.8040   -3.1951   17.4243 C   0  0  0  0  0  0
    9.6305   -4.4408   20.1952 C   0  0  0  0  0  0
   11.7026   -4.8884   18.4044 C   0  0  0  0  0  0
    7.5685   -0.9389   23.8362 C   0  0  0  0  0  0
    7.4978   -2.8676   21.7916 O   0  0  0  0  0  0
    9.3176   -2.2693   24.3999 O   0  0  0  0  0  0
    8.0897   -1.7848   24.7943 C   0  0  0  0  0  0
    7.4137   -2.0747   25.9656 C   0  0  0  0  0  0
    6.1704   -1.4984   26.1707 C   0  0  0  0  0  0
    6.3313   -0.3485   24.0505 C   0  0  0  0  0  0
    5.6479   -0.6445   25.2124 C   0  0  0  0  0  0
    4.0774    0.0552   25.4624 Cl  0  0  0  0  0  0
    8.1727   -1.2967   20.3098 N   0  0  0  0  0  0
    6.9440   -2.2454   17.2012 N   0  0  0  0  0  0
    9.6545   -3.7636   18.9769 C   0  0  0  0  0  0
   10.7032   -3.9799   18.0841 C   0  0  0  0  0  0
   11.6667   -5.5728   19.6038 C   0  0  0  0  0  0
   10.6371   -5.3456   20.4981 C   0  0  0  0  0  0
    6.6121   -0.4325   18.3915 H   0  0  0  0  0  0
   10.4130   -0.6432   23.6800 H   0  0  0  0  0  0
   10.2895   -2.0849   22.5605 H   0  0  0  0  0  0
    8.6762    0.1591   22.3225 H   0  0  0  0  0  0
    7.9886   -4.0840   16.8393 H   0  0  0  0  0  0
    8.8306   -4.2598   20.8979 H   0  0  0  0  0  0
   12.5146   -5.0636   17.7141 H   0  0  0  0  0  0
    7.8566   -2.7367   26.6950 H   0  0  0  0  0  0
    5.6164   -1.7158   27.0719 H   0  0  0  0  0  0
    5.9211    0.3279   23.3152 H   0  0  0  0  0  0
   10.7403   -3.4445   17.1468 H   0  0  0  0  0  0
   12.4427   -6.2850   19.8426 H   0  0  0  0  0  0
   10.6199   -5.8780   21.4376 H   0  0  0  0  0  0
  1  6  1  0  0  0
  1 20  1  0  0  0
  1 25  1  0  0  0
  2  6  1  0  0  0
  2  7  1  0  0  0
  2 21  1  0  0  0
  3  4  1  0  0  0
  3 12  1  0  0  0
  3 26  1  0  0  0
  3 27  1  0  0  0
  4  5  1  0  0  0
  4 10  1  0  0  0
  4 28  1  0  0  0
  5 11  2  0  0  0
  5 19  1  0  0  0
  6 19  2  0  0  0
  7 20  2  0  0  0
  7 29  1  0  0  0
  8 21  1  0  0  0
  8 24  2  0  0  0
  8 30  1  0  0  0
  9 22  1  0  0  0
  9 23  2  0  0  0
  9 31  1  0  0  0
 10 13  2  0  0  0
 10 16  1  0  0  0
 12 13  1  0  0  0
 13 14  1  0  0  0
 14 15  2  0  0  0
 14 32  1  0  0  0
 15 17  1  0  0  0
 15 33  1  0  0  0
 16 17  2  0  0  0
 16 34  1  0  0  0
 17 18  1  0  0  0
 21 22  2  0  0  0
 22 35  1  0  0  0
 23 24  1  0  0  0
 23 36  1  0  0  0
 24 37  1  0  0  0
M  END
> <s_m_entry_id>
349

> <s_m_entry_name>
7gdv.pdb.1_ligand

> <s_pdb_PDB_TITLE>
GROUP DEPOSITION SARS-COV-2 MAIN PROTEASE IN COMPLEX WITH INHIBITORS FROM THE COVID MOONSHOT -- CRYSTAL STRUCTURE OF SARS-COV-2 MAIN PROTEASE IN COMPLEX WITH NAU-LAT-8502CAC5-6 (MPRO-X11231)

> <s_pdb_PDB_ID>
7GDV

> <s_m_Source_File>
7gdv.pdb.gz

> <s_user_Compound_ID>
NAU-LAT-8502cac5-6

> <s_user_Monomer-Dimer>
Monomer

> <s_user_xcode>
Mpro-x11231

$$$$
