7GDW_ligand
                    3D
 Schrodinger Suite 2021-2.
 40 43  0  0  1  0            999 V2000
    6.5877   -1.5393   19.0510 N   0  0  0  0  0  0
    8.6772   -2.0763   18.6185 N   0  0  0  0  0  0
    7.5453   -1.9044   25.3713 C   0  0  0  0  0  0
    6.5010   -2.1498   26.2500 C   0  0  0  0  0  0
    5.2801   -1.5292   26.0288 C   0  0  0  0  0  0
    5.1147   -0.6818   24.9541 C   0  0  0  0  0  0
    6.1595   -0.4575   24.0738 C   0  0  0  0  0  0
    7.9464   -1.6207   21.9542 C   0  0  0  0  0  0
   10.1263   -2.3083   18.7706 C   0  0  0  0  0  0
   10.5734   -3.5171   19.5145 C   0  0  0  0  0  0
    7.3115   -2.6639   22.0295 O   0  0  0  0  0  0
    8.2409   -1.0368   20.7464 N   0  0  0  0  0  0
    7.8202   -1.5131   19.5236 C   0  0  0  0  0  0
   10.7347   -3.4458   18.0313 C   0  0  0  0  0  0
    7.8816   -2.4344   17.5723 C   0  0  0  0  0  0
    6.6391   -2.1357   17.8050 N   0  0  0  0  0  0
    8.4986   -0.9292   23.2193 C   0  0  1  0  0  0
    8.7957    0.5791   23.0969 C   0  0  0  0  0  0
    7.3868   -1.0801   24.2557 C   0  0  0  0  0  0
    8.7472   -2.4836   25.6909 O   0  0  0  0  0  0
    9.5139   -2.8618   24.5344 C   0  0  0  0  0  0
    9.7943   -1.6705   23.6392 C   0  0  0  0  0  0
    6.6460   -2.8142   27.0889 H   0  0  0  0  0  0
    4.4535   -1.7089   26.7003 H   0  0  0  0  0  0
    4.1667   -0.1893   24.7957 H   0  0  0  0  0  0
    6.0247    0.2082   23.2341 H   0  0  0  0  0  0
   10.7469   -1.4190   18.8804 H   0  0  0  0  0  0
    9.6245   -4.0517   19.5576 H   0  0  0  0  0  0
   11.5660   -3.1778   19.8106 H   0  0  0  0  0  0
    8.8031   -0.1983   20.7145 H   0  0  0  0  0  0
   11.7643   -3.0907   17.9878 H   0  0  0  0  0  0
    9.8231   -3.9645   17.7347 H   0  0  0  0  0  0
    8.3142   -2.9019   16.7001 H   0  0  0  0  0  0
    9.1780    0.9529   24.0468 H   0  0  0  0  0  0
    9.5400    0.7412   22.3173 H   0  0  0  0  0  0
    7.8795    1.1107   22.8401 H   0  0  0  0  0  0
    8.9698   -3.6193   23.9703 H   0  0  0  0  0  0
   10.4569   -3.3056   24.8537 H   0  0  0  0  0  0
   10.4574   -0.9769   24.1562 H   0  0  0  0  0  0
   10.3260   -2.0041   22.7481 H   0  0  0  0  0  0
  1 13  2  0  0  0
  1 16  1  0  0  0
  2  9  1  0  0  0
  2 13  1  0  0  0
  2 15  1  0  0  0
  3  4  1  0  0  0
  3 19  2  0  0  0
  3 20  1  0  0  0
  4  5  2  0  0  0
  4 23  1  0  0  0
  5  6  1  0  0  0
  5 24  1  0  0  0
  6  7  2  0  0  0
  6 25  1  0  0  0
  7 19  1  0  0  0
  7 26  1  0  0  0
  8 11  2  0  0  0
  8 12  1  0  0  0
  8 17  1  0  0  0
  9 10  1  0  0  0
  9 14  1  0  0  0
  9 27  1  0  0  0
 10 14  1  0  0  0
 10 28  1  0  0  0
 10 29  1  0  0  0
 12 13  1  0  0  0
 12 30  1  0  0  0
 14 31  1  0  0  0
 14 32  1  0  0  0
 15 16  2  0  0  0
 15 33  1  0  0  0
 17 18  1  0  0  0
 17 19  1  0  0  0
 17 22  1  0  0  0
 18 34  1  0  0  0
 18 35  1  0  0  0
 18 36  1  0  0  0
 20 21  1  0  0  0
 21 22  1  0  0  0
 21 37  1  0  0  0
 21 38  1  0  0  0
 22 39  1  0  0  0
 22 40  1  0  0  0
M  END
> <s_m_entry_id>
351

> <s_m_entry_name>
7gdw.pdb.1_ligand

> <s_pdb_PDB_TITLE>
GROUP DEPOSITION SARS-COV-2 MAIN PROTEASE IN COMPLEX WITH INHIBITORS FROM THE COVID MOONSHOT -- CRYSTAL STRUCTURE OF SARS-COV-2 MAIN PROTEASE IN COMPLEX WITH BRU-THA-A358FBDD-2 (MPRO-X11233)

> <s_pdb_PDB_ID>
7GDW

> <s_m_Source_File>
7gdw.pdb.gz

> <s_user_Compound_ID>
BRU-THA-a358fbdd-2

> <s_user_Monomer-Dimer>
Monomer

> <s_user_xcode>
Mpro-x11233

$$$$
