7GDZ_ligand
                    3D
 Schrodinger Suite 2021-2.
 35 36  0  0  1  0            999 V2000
    6.9635   -2.3497   17.2563 N   0  0  0  0  0  0
    6.7334   -0.0434   24.0264 C   0  0  0  0  0  0
    8.0278   -0.3668   23.6419 C   0  0  0  0  0  0
    8.5571    0.0965   22.3099 C   0  0  0  0  0  0
    8.2118   -0.9510   21.2755 C   0  0  0  0  0  0
    8.4651   -1.5007   18.9220 C   0  0  0  0  0  0
    7.9607   -3.1252   16.8082 C   0  0  0  0  0  0
   10.8300   -2.4219   19.1640 C   0  0  0  0  0  0
    7.5923   -1.9725   21.5675 O   0  0  0  0  0  0
    6.2436   -0.5123   25.2239 C   0  0  0  0  0  0
    4.6465   -0.0379   25.7216 Cl  0  0  0  0  0  0
    7.0014   -1.3066   26.0617 C   0  0  0  0  0  0
    8.8155   -1.1506   24.4776 C   0  0  0  0  0  0
    8.3022   -1.6000   25.6861 C   0  0  0  0  0  0
    9.0231   -2.2398   26.6616 O   0  0  0  0  0  0
   10.4295   -2.4165   26.4671 C   0  0  0  0  0  0
    8.6747   -0.6785   20.0414 N   0  0  0  0  0  0
    9.4996   -2.3337   18.4611 C   0  0  0  0  0  0
    9.2213   -3.1458   17.3677 C   0  0  0  0  0  0
    7.2230   -1.5454   18.2920 C   0  0  0  0  0  0
    6.1181    0.5723   23.3871 H   0  0  0  0  0  0
    9.6401    0.2061   22.3679 H   0  0  0  0  0  0
    8.0855    1.0416   22.0408 H   0  0  0  0  0  0
    7.7983   -3.7800   15.9648 H   0  0  0  0  0  0
   11.4748   -3.1241   18.6357 H   0  0  0  0  0  0
   11.2997   -1.4384   19.1786 H   0  0  0  0  0  0
   10.6790   -2.7670   20.1869 H   0  0  0  0  0  0
    6.5765   -1.6810   26.9812 H   0  0  0  0  0  0
    9.8229   -1.4075   24.1854 H   0  0  0  0  0  0
   10.8528   -2.9381   27.3255 H   0  0  0  0  0  0
   10.6011   -3.0036   25.5649 H   0  0  0  0  0  0
   10.9075   -1.4425   26.3625 H   0  0  0  0  0  0
    9.2099    0.1621   19.8770 H   0  0  0  0  0  0
    9.9843   -3.7898   16.9561 H   0  0  0  0  0  0
    6.4526   -0.8926   18.6750 H   0  0  0  0  0  0
  1  7  1  0  0  0
  1 20  2  0  0  0
  2  3  1  0  0  0
  2 10  2  0  0  0
  2 21  1  0  0  0
  3  4  1  0  0  0
  3 13  2  0  0  0
  4  5  1  0  0  0
  4 22  1  0  0  0
  4 23  1  0  0  0
  5  9  2  0  0  0
  5 17  1  0  0  0
  6 17  1  0  0  0
  6 18  2  0  0  0
  6 20  1  0  0  0
  7 19  2  0  0  0
  7 24  1  0  0  0
  8 18  1  0  0  0
  8 25  1  0  0  0
  8 26  1  0  0  0
  8 27  1  0  0  0
 10 11  1  0  0  0
 10 12  1  0  0  0
 12 14  2  0  0  0
 12 28  1  0  0  0
 13 14  1  0  0  0
 13 29  1  0  0  0
 14 15  1  0  0  0
 15 16  1  0  0  0
 16 30  1  0  0  0
 16 31  1  0  0  0
 16 32  1  0  0  0
 17 33  1  0  0  0
 18 19  1  0  0  0
 19 34  1  0  0  0
 20 35  1  0  0  0
M  END
> <s_m_entry_id>
353

> <s_m_entry_name>
7gdz.pdb.1_ligand

> <s_pdb_PDB_TITLE>
GROUP DEPOSITION SARS-COV-2 MAIN PROTEASE IN COMPLEX WITH INHIBITORS FROM THE COVID MOONSHOT -- CRYSTAL STRUCTURE OF SARS-COV-2 MAIN PROTEASE IN COMPLEX WITH MAT-POS-C9973A83-1 (MPRO-X11271)

> <s_pdb_PDB_ID>
7GDZ

> <s_m_Source_File>
7gdz.pdb.gz

> <s_user_Compound_ID>
MAT-POS-c9973a83-1

> <s_user_Monomer-Dimer>
Monomer

> <s_user_xcode>
Mpro-x11271

$$$$
