7GE0_ligand
                    3D
 Schrodinger Suite 2021-2.
 43 45  0  0  1  0            999 V2000
    8.6248   -3.2124   17.0290 N   0  0  0  0  0  0
    5.4176   -0.0063   25.6953 C   0  0  0  0  0  0
    6.3267    0.3715   24.7205 C   0  0  0  0  0  0
    7.2757   -0.5396   24.2791 C   0  0  0  0  0  0
    8.6425    1.0527   23.0770 C   0  0  0  0  0  0
    9.5073    1.0551   21.8474 C   0  0  0  0  0  0
    9.2141   -1.1411   18.7868 C   0  0  0  0  0  0
    9.9313   -3.1202   17.4948 C   0  0  0  0  0  0
   12.1852   -3.9636   17.5557 C   0  0  0  0  0  0
   11.5653   -2.1181   18.9052 C   0  0  0  0  0  0
   11.9097   -1.1906   19.8237 F   0  0  0  0  0  0
   12.5259   -3.0118   18.4985 C   0  0  0  0  0  0
   10.8958   -4.0294   17.0580 C   0  0  0  0  0  0
   10.2638   -2.1075   18.4192 C   0  0  0  0  0  0
    7.6068   -2.3763   17.4049 C   0  0  0  0  0  0
    6.4505   -2.6080   17.0443 O   0  0  0  0  0  0
    7.9639   -1.3194   18.2832 C   0  0  0  0  0  0
    9.4778    0.0823   19.6065 C   0  0  0  0  0  0
   10.0497    1.0636   19.1284 O   0  0  0  0  0  0
    9.1082    0.0348   20.8874 N   0  0  0  0  0  0
    8.1838   -0.2931   23.2802 O   0  0  0  0  0  0
    7.3166   -1.8352   24.8326 C   0  0  0  0  0  0
    8.2603   -2.6703   24.2948 O   0  0  0  0  0  0
    8.2333   -4.0471   24.6733 C   0  0  0  0  0  0
    5.4596   -1.2740   26.2435 C   0  0  0  0  0  0
    6.4082   -2.1929   25.8221 C   0  0  0  0  0  0
    8.3743   -3.9332   16.3673 H   0  0  0  0  0  0
    4.6670    0.6926   26.0337 H   0  0  0  0  0  0
    6.2938    1.3695   24.3091 H   0  0  0  0  0  0
    7.7859    1.7080   22.9192 H   0  0  0  0  0  0
    9.2335    1.3683   23.9368 H   0  0  0  0  0  0
   10.5465    0.8954   22.1350 H   0  0  0  0  0  0
    9.4615    2.0359   21.3740 H   0  0  0  0  0  0
   12.9279   -4.6634   17.2019 H   0  0  0  0  0  0
   13.5287   -2.9827   18.8984 H   0  0  0  0  0  0
   10.6359   -4.7847   16.3311 H   0  0  0  0  0  0
    7.1725   -0.6336   18.5475 H   0  0  0  0  0  0
    8.5329   -0.7263   21.2190 H   0  0  0  0  0  0
    9.0389   -4.5794   24.1674 H   0  0  0  0  0  0
    8.3647   -4.1305   25.7521 H   0  0  0  0  0  0
    7.2757   -4.4837   24.3896 H   0  0  0  0  0  0
    4.7496   -1.5560   27.0069 H   0  0  0  0  0  0
    6.4445   -3.1808   26.2570 H   0  0  0  0  0  0
  1  8  1  0  0  0
  1 15  1  0  0  0
  1 27  1  0  0  0
  2  3  1  0  0  0
  2 25  2  0  0  0
  2 28  1  0  0  0
  3  4  2  0  0  0
  3 29  1  0  0  0
  4 21  1  0  0  0
  4 22  1  0  0  0
  5  6  1  0  0  0
  5 21  1  0  0  0
  5 30  1  0  0  0
  5 31  1  0  0  0
  6 20  1  0  0  0
  6 32  1  0  0  0
  6 33  1  0  0  0
  7 14  1  0  0  0
  7 17  2  0  0  0
  7 18  1  0  0  0
  8 13  1  0  0  0
  8 14  2  0  0  0
  9 12  1  0  0  0
  9 13  2  0  0  0
  9 34  1  0  0  0
 10 11  1  0  0  0
 10 12  2  0  0  0
 10 14  1  0  0  0
 12 35  1  0  0  0
 13 36  1  0  0  0
 15 16  2  0  0  0
 15 17  1  0  0  0
 17 37  1  0  0  0
 18 19  2  0  0  0
 18 20  1  0  0  0
 20 38  1  0  0  0
 22 23  1  0  0  0
 22 26  2  0  0  0
 23 24  1  0  0  0
 24 39  1  0  0  0
 24 40  1  0  0  0
 24 41  1  0  0  0
 25 26  1  0  0  0
 25 42  1  0  0  0
 26 43  1  0  0  0
M  END
> <s_m_entry_id>
355

> <s_m_entry_name>
7ge0.pdb.1_ligand

> <s_pdb_PDB_TITLE>
GROUP DEPOSITION SARS-COV-2 MAIN PROTEASE IN COMPLEX WITH INHIBITORS FROM THE COVID MOONSHOT -- CRYSTAL STRUCTURE OF SARS-COV-2 MAIN PROTEASE IN COMPLEX WITH EDJ-MED-6AF13D92-2 (MPRO-X11276)

> <s_pdb_PDB_ID>
7GE0

> <s_m_Source_File>
7ge0.pdb.gz

> <s_user_Compound_ID>
EDJ-MED-6af13d92-2

> <s_user_Monomer-Dimer>
Monomer

> <s_user_xcode>
Mpro-x11276

$$$$
