7GE1_ligand
                    3D
 Schrodinger Suite 2021-2.
 47 49  0  0  1  0            999 V2000
    8.6474   -3.1203   16.9943 N   0  0  0  0  0  0
    5.1502   -0.1677   25.6051 C   0  0  0  0  0  0
    6.1241    0.2232   24.7008 C   0  0  0  0  0  0
    7.1917   -0.6239   24.4327 C   0  0  0  0  0  0
    8.4668    0.9699   23.1366 C   0  0  0  0  0  0
    9.4360    0.9411   21.9923 C   0  0  0  0  0  0
    9.2346   -1.1405   18.8540 C   0  0  0  0  0  0
    9.9525   -3.0557   17.4701 C   0  0  0  0  0  0
   12.1741   -3.9550   17.5701 C   0  0  0  0  0  0
   11.5708   -2.1334   19.0161 C   0  0  0  0  0  0
    6.4651   -2.5476   17.0836 O   0  0  0  0  0  0
    7.6265   -2.3103   17.4206 C   0  0  0  0  0  0
    7.9853   -1.2924   18.3393 C   0  0  0  0  0  0
   10.2790   -2.0934   18.4528 C   0  0  0  0  0  0
   11.8013   -1.2356   20.0248 O   0  0  0  0  0  0
   13.1028   -1.2043   20.6114 C   0  0  0  0  0  0
   12.5069   -3.0576   18.5703 C   0  0  0  0  0  0
   10.9044   -3.9661   17.0248 C   0  0  0  0  0  0
    9.4951    0.0478   19.7171 C   0  0  0  0  0  0
   10.1136    1.0214   19.2910 O   0  0  0  0  0  0
    9.0543   -0.0250   20.9749 N   0  0  0  0  0  0
    8.1524   -0.3896   23.4801 O   0  0  0  0  0  0
    7.2966   -1.8554   25.1089 C   0  0  0  0  0  0
    8.3492   -2.6421   24.7238 O   0  0  0  0  0  0
    8.3569   -4.0083   25.1488 C   0  0  0  0  0  0
    5.2496   -1.3773   26.2672 C   0  0  0  0  0  0
    6.3269   -2.2190   26.0376 C   0  0  0  0  0  0
    8.4007   -3.7977   16.2869 H   0  0  0  0  0  0
    4.3037    0.4746   25.7982 H   0  0  0  0  0  0
    6.0506    1.1819   24.2089 H   0  0  0  0  0  0
    7.5573    1.4860   22.8288 H   0  0  0  0  0  0
    8.9295    1.4625   23.9917 H   0  0  0  0  0  0
   10.4311    0.6999   22.3661 H   0  0  0  0  0  0
    9.4984    1.9331   21.5450 H   0  0  0  0  0  0
   12.9105   -4.6570   17.2075 H   0  0  0  0  0  0
    7.1964   -0.6134   18.6274 H   0  0  0  0  0  0
   13.1313   -0.4453   21.3932 H   0  0  0  0  0  0
   13.3308   -2.1788   21.0433 H   0  0  0  0  0  0
   13.8412   -0.9649   19.8462 H   0  0  0  0  0  0
   13.4954   -3.0756   19.0049 H   0  0  0  0  0  0
   10.6505   -4.6794   16.2546 H   0  0  0  0  0  0
    8.4319   -0.7715   21.2494 H   0  0  0  0  0  0
    9.2503   -4.5029   24.7676 H   0  0  0  0  0  0
    8.3556   -4.0505   26.2380 H   0  0  0  0  0  0
    7.4707   -4.5137   24.7651 H   0  0  0  0  0  0
    4.4842   -1.6729   26.9695 H   0  0  0  0  0  0
    6.4163   -3.1518   26.5745 H   0  0  0  0  0  0
  1  8  1  0  0  0
  1 12  1  0  0  0
  1 28  1  0  0  0
  2  3  1  0  0  0
  2 26  2  0  0  0
  2 29  1  0  0  0
  3  4  2  0  0  0
  3 30  1  0  0  0
  4 22  1  0  0  0
  4 23  1  0  0  0
  5  6  1  0  0  0
  5 22  1  0  0  0
  5 31  1  0  0  0
  5 32  1  0  0  0
  6 21  1  0  0  0
  6 33  1  0  0  0
  6 34  1  0  0  0
  7 13  2  0  0  0
  7 14  1  0  0  0
  7 19  1  0  0  0
  8 14  1  0  0  0
  8 18  2  0  0  0
  9 17  2  0  0  0
  9 18  1  0  0  0
  9 35  1  0  0  0
 10 14  2  0  0  0
 10 15  1  0  0  0
 10 17  1  0  0  0
 11 12  2  0  0  0
 12 13  1  0  0  0
 13 36  1  0  0  0
 15 16  1  0  0  0
 16 37  1  0  0  0
 16 38  1  0  0  0
 16 39  1  0  0  0
 17 40  1  0  0  0
 18 41  1  0  0  0
 19 20  2  0  0  0
 19 21  1  0  0  0
 21 42  1  0  0  0
 23 24  1  0  0  0
 23 27  2  0  0  0
 24 25  1  0  0  0
 25 43  1  0  0  0
 25 44  1  0  0  0
 25 45  1  0  0  0
 26 27  1  0  0  0
 26 46  1  0  0  0
 27 47  1  0  0  0
M  END
> <s_m_entry_id>
357

> <s_m_entry_name>
7ge1.pdb.1_ligand

> <s_pdb_PDB_TITLE>
GROUP DEPOSITION SARS-COV-2 MAIN PROTEASE IN COMPLEX WITH INHIBITORS FROM THE COVID MOONSHOT -- CRYSTAL STRUCTURE OF SARS-COV-2 MAIN PROTEASE IN COMPLEX WITH EDJ-MED-6AF13D92-3 (MPRO-X11294)

> <s_pdb_PDB_ID>
7GE1

> <s_m_Source_File>
7ge1.pdb.gz

> <s_user_Compound_ID>
EDJ-MED-6af13d92-3

> <s_user_Monomer-Dimer>
Monomer

> <s_user_xcode>
Mpro-x11294

$$$$
