7GE2_ligand
                    3D
 Schrodinger Suite 2021-2.
 46 48  0  0  1  0            999 V2000
    8.6852   -3.2004   16.9121 N   0  0  0  0  0  0
    5.2727   -0.2386   25.7309 C   0  0  0  0  0  0
    6.2286    0.2204   24.8371 C   0  0  0  0  0  0
    7.2297   -0.6402   24.4092 C   0  0  0  0  0  0
    8.2599    1.0023   22.9613 C   0  0  0  0  0  0
    9.2686    0.9881   21.8520 C   0  0  0  0  0  0
    9.1620   -1.1776   18.7608 C   0  0  0  0  0  0
    9.9761   -3.0905   17.4252 C   0  0  0  0  0  0
   12.2393   -3.8867   17.5217 C   0  0  0  0  0  0
   11.5616   -2.0656   18.9654 C   0  0  0  0  0  0
    6.4865   -2.6892   16.9196 O   0  0  0  0  0  0
    7.6313   -2.4205   17.2992 C   0  0  0  0  0  0
    7.9339   -1.3884   18.2180 C   0  0  0  0  0  0
   10.2664   -2.1058   18.3994 C   0  0  0  0  0  0
   11.9278   -1.1586   20.1114 C   0  0  0  0  0  0
   12.5253   -2.9580   18.4999 C   0  0  0  0  0  0
   10.9680   -3.9660   16.9866 C   0  0  0  0  0  0
    9.3211    0.0487   19.6037 C   0  0  0  0  0  0
    9.7398    1.1048   19.1276 O   0  0  0  0  0  0
    8.9733   -0.0594   20.8853 N   0  0  0  0  0  0
    8.2363   -0.3126   23.5367 O   0  0  0  0  0  0
    7.2657   -1.9665   24.8785 C   0  0  0  0  0  0
    8.3031   -2.7208   24.4040 O   0  0  0  0  0  0
    8.5357   -3.9955   25.0057 C   0  0  0  0  0  0
    5.3146   -1.5391   26.2015 C   0  0  0  0  0  0
    6.3022   -2.4104   25.7756 C   0  0  0  0  0  0
    8.4799   -3.8921   16.2054 H   0  0  0  0  0  0
    4.4859    0.4210   26.0661 H   0  0  0  0  0  0
    6.1895    1.2391   24.4806 H   0  0  0  0  0  0
    7.2765    1.2379   22.5544 H   0  0  0  0  0  0
    8.5642    1.7244   23.7190 H   0  0  0  0  0  0
   10.2633    0.8280   22.2680 H   0  0  0  0  0  0
    9.2693    1.9556   21.3498 H   0  0  0  0  0  0
   13.0105   -4.5562   17.1706 H   0  0  0  0  0  0
    7.1086   -0.7440   18.4827 H   0  0  0  0  0  0
   12.9760   -1.3060   20.3715 H   0  0  0  0  0  0
   11.7690   -0.1207   19.8191 H   0  0  0  0  0  0
   11.3037   -1.3922   20.9740 H   0  0  0  0  0  0
   13.5170   -2.9095   18.9250 H   0  0  0  0  0  0
   10.7417   -4.7034   16.2308 H   0  0  0  0  0  0
    8.4910   -0.8854   21.2097 H   0  0  0  0  0  0
    9.3887   -4.4745   24.5251 H   0  0  0  0  0  0
    8.7440   -3.8641   26.0675 H   0  0  0  0  0  0
    7.6519   -4.6218   24.8841 H   0  0  0  0  0  0
    4.5726   -1.8821   26.9073 H   0  0  0  0  0  0
    6.3275   -3.4284   26.1353 H   0  0  0  0  0  0
  1  8  1  0  0  0
  1 12  1  0  0  0
  1 27  1  0  0  0
  2  3  1  0  0  0
  2 25  2  0  0  0
  2 28  1  0  0  0
  3  4  2  0  0  0
  3 29  1  0  0  0
  4 21  1  0  0  0
  4 22  1  0  0  0
  5  6  1  0  0  0
  5 21  1  0  0  0
  5 30  1  0  0  0
  5 31  1  0  0  0
  6 20  1  0  0  0
  6 32  1  0  0  0
  6 33  1  0  0  0
  7 13  2  0  0  0
  7 14  1  0  0  0
  7 18  1  0  0  0
  8 14  1  0  0  0
  8 17  2  0  0  0
  9 16  2  0  0  0
  9 17  1  0  0  0
  9 34  1  0  0  0
 10 14  2  0  0  0
 10 15  1  0  0  0
 10 16  1  0  0  0
 11 12  2  0  0  0
 12 13  1  0  0  0
 13 35  1  0  0  0
 15 36  1  0  0  0
 15 37  1  0  0  0
 15 38  1  0  0  0
 16 39  1  0  0  0
 17 40  1  0  0  0
 18 19  2  0  0  0
 18 20  1  0  0  0
 20 41  1  0  0  0
 22 23  1  0  0  0
 22 26  2  0  0  0
 23 24  1  0  0  0
 24 42  1  0  0  0
 24 43  1  0  0  0
 24 44  1  0  0  0
 25 26  1  0  0  0
 25 45  1  0  0  0
 26 46  1  0  0  0
M  END
> <s_m_entry_id>
359

> <s_m_entry_name>
7ge2.pdb.1_ligand

> <s_pdb_PDB_TITLE>
GROUP DEPOSITION SARS-COV-2 MAIN PROTEASE IN COMPLEX WITH INHIBITORS FROM THE COVID MOONSHOT -- CRYSTAL STRUCTURE OF SARS-COV-2 MAIN PROTEASE IN COMPLEX WITH EDJ-MED-6AF13D92-1 (MPRO-X11313)

> <s_pdb_PDB_ID>
7GE2

> <s_m_Source_File>
7ge2.pdb.gz

> <s_user_Compound_ID>
EDJ-MED-6af13d92-1

> <s_user_Monomer-Dimer>
Monomer

> <s_user_xcode>
Mpro-x11313

$$$$
