7GE3_ligand
                    3D
 Schrodinger Suite 2021-2.
 33 34  0  0  1  0            999 V2000
    6.8968   -2.0333   17.4739 N   0  0  0  0  0  0
    7.1689   -1.3897   18.6088 C   0  0  0  0  0  0
    8.3675   -1.5496   19.2901 C   0  0  0  0  0  0
    8.1584   -1.3116   21.7001 C   0  0  0  0  0  0
    8.6086   -0.4870   22.8909 C   0  0  0  0  0  0
    7.6841   -0.6862   24.0722 C   0  0  0  0  0  0
    7.1014   -1.8257   26.1217 C   0  0  0  0  0  0
    6.4597   -0.0293   24.1114 C   0  0  0  0  0  0
    4.0293    0.5130   25.1365 Cl  0  0  0  0  0  0
    5.5707   -0.2980   25.1306 C   0  0  0  0  0  0
    5.8611   -1.2028   26.1313 C   0  0  0  0  0  0
    8.0058   -1.5652   25.1012 C   0  0  0  0  0  0
    7.5388   -2.3686   21.8350 O   0  0  0  0  0  0
    8.5663   -0.8415   20.5048 N   0  0  0  0  0  0
    9.3508   -2.4251   18.7972 C   0  0  0  0  0  0
   10.6393   -2.6638   19.5496 C   0  0  0  0  0  0
    7.8310   -2.8630   16.9931 C   0  0  0  0  0  0
    9.0766   -3.0849   17.6235 C   0  0  0  0  0  0
    9.9628   -3.9718   17.0238 N   0  0  0  0  0  0
    6.4425   -0.7122   19.0328 H   0  0  0  0  0  0
    8.6248    0.5678   22.6166 H   0  0  0  0  0  0
    9.6218   -0.7761   23.1702 H   0  0  0  0  0  0
    7.3654   -2.5155   26.9097 H   0  0  0  0  0  0
    6.2073    0.6888   23.3453 H   0  0  0  0  0  0
    5.1486   -1.4304   26.9104 H   0  0  0  0  0  0
    8.9687   -2.0542   25.1126 H   0  0  0  0  0  0
    9.0312    0.0551   20.4964 H   0  0  0  0  0  0
   11.2574   -3.3716   18.9974 H   0  0  0  0  0  0
   11.1764   -1.7217   19.6594 H   0  0  0  0  0  0
   10.4148   -3.0704   20.5357 H   0  0  0  0  0  0
    7.6515   -3.4054   16.0766 H   0  0  0  0  0  0
    9.7110   -4.4306   16.1600 H   0  0  0  0  0  0
   10.8586   -4.1575   17.4518 H   0  0  0  0  0  0
  1  2  1  0  0  0
  1 17  2  0  0  0
  2  3  2  0  0  0
  2 20  1  0  0  0
  3 14  1  0  0  0
  3 15  1  0  0  0
  4  5  1  0  0  0
  4 13  2  0  0  0
  4 14  1  0  0  0
  5  6  1  0  0  0
  5 21  1  0  0  0
  5 22  1  0  0  0
  6  8  1  0  0  0
  6 12  2  0  0  0
  7 11  2  0  0  0
  7 12  1  0  0  0
  7 23  1  0  0  0
  8 10  2  0  0  0
  8 24  1  0  0  0
  9 10  1  0  0  0
 10 11  1  0  0  0
 11 25  1  0  0  0
 12 26  1  0  0  0
 14 27  1  0  0  0
 15 16  1  0  0  0
 15 18  2  0  0  0
 16 28  1  0  0  0
 16 29  1  0  0  0
 16 30  1  0  0  0
 17 18  1  0  0  0
 17 31  1  0  0  0
 18 19  1  0  0  0
 19 32  1  0  0  0
 19 33  1  0  0  0
M  END
> <s_m_entry_id>
361

> <s_m_entry_name>
7ge3.pdb.1_ligand

> <s_pdb_PDB_TITLE>
GROUP DEPOSITION SARS-COV-2 MAIN PROTEASE IN COMPLEX WITH INHIBITORS FROM THE COVID MOONSHOT -- CRYSTAL STRUCTURE OF SARS-COV-2 MAIN PROTEASE IN COMPLEX WITH TRY-UNI-714A760B-3 (MPRO-X11317)

> <s_pdb_PDB_ID>
7GE3

> <s_m_Source_File>
7ge3.pdb.gz

> <s_user_Compound_ID>
TRY-UNI-714a760b-3

> <s_user_Monomer-Dimer>
Monomer

> <s_user_xcode>
Mpro-x11317

$$$$
