7GE4_ligand
                    3D
 Schrodinger Suite 2021-2.
 34 35  0  0  1  0            999 V2000
    6.9726   -2.0606   17.5700 N   0  0  0  0  0  0
    3.1839    0.6034   24.9347 N   0  0  0  0  0  0
    7.2489   -1.5024   18.7489 C   0  0  0  0  0  0
    8.4671   -1.6674   19.3952 C   0  0  0  0  0  0
    8.1830   -1.4552   21.8203 C   0  0  0  0  0  0
    8.6679   -0.6695   23.0195 C   0  0  0  0  0  0
    7.7116   -0.8289   24.1761 C   0  0  0  0  0  0
    7.1380   -1.8069   26.3070 C   0  0  0  0  0  0
    4.2180    0.1337   25.0480 C   0  0  0  0  0  0
    5.5329   -0.4516   25.1444 C   0  0  0  0  0  0
    5.8713   -1.2520   26.2330 C   0  0  0  0  0  0
    8.0474   -1.5992   25.2814 C   0  0  0  0  0  0
    6.4581   -0.2301   24.1259 C   0  0  0  0  0  0
    7.4371   -2.4222   21.9422 O   0  0  0  0  0  0
    8.6790   -1.0270   20.6397 N   0  0  0  0  0  0
    9.4747   -2.4696   18.8308 C   0  0  0  0  0  0
   10.7812   -2.7133   19.5509 C   0  0  0  0  0  0
    7.9228   -2.8130   17.0050 C   0  0  0  0  0  0
    9.2004   -3.0631   17.5977 C   0  0  0  0  0  0
   10.0961   -3.9174   16.9411 N   0  0  0  0  0  0
    6.5089   -0.8905   19.2433 H   0  0  0  0  0  0
    8.7454    0.3851   22.7553 H   0  0  0  0  0  0
    9.6549   -1.0270   23.3127 H   0  0  0  0  0  0
    7.4177   -2.4017   27.1640 H   0  0  0  0  0  0
    5.1524   -1.4409   27.0165 H   0  0  0  0  0  0
    9.0283   -2.0459   25.3504 H   0  0  0  0  0  0
    6.1981    0.4096   23.2954 H   0  0  0  0  0  0
    9.2366   -0.1862   20.6865 H   0  0  0  0  0  0
   11.4169   -3.3574   18.9433 H   0  0  0  0  0  0
   11.2857   -1.7622   19.7213 H   0  0  0  0  0  0
   10.5846   -3.1963   20.5080 H   0  0  0  0  0  0
    7.7468   -3.2737   16.0442 H   0  0  0  0  0  0
    9.8475   -4.3207   16.0492 H   0  0  0  0  0  0
   10.9903   -4.1298   17.3598 H   0  0  0  0  0  0
  1  3  1  0  0  0
  1 18  2  0  0  0
  2  9  3  0  0  0
  3  4  2  0  0  0
  3 21  1  0  0  0
  4 15  1  0  0  0
  4 16  1  0  0  0
  5  6  1  0  0  0
  5 14  2  0  0  0
  5 15  1  0  0  0
  6  7  1  0  0  0
  6 22  1  0  0  0
  6 23  1  0  0  0
  7 12  1  0  0  0
  7 13  2  0  0  0
  8 11  1  0  0  0
  8 12  2  0  0  0
  8 24  1  0  0  0
  9 10  1  0  0  0
 10 11  2  0  0  0
 10 13  1  0  0  0
 11 25  1  0  0  0
 12 26  1  0  0  0
 13 27  1  0  0  0
 15 28  1  0  0  0
 16 17  1  0  0  0
 16 19  2  0  0  0
 17 29  1  0  0  0
 17 30  1  0  0  0
 17 31  1  0  0  0
 18 19  1  0  0  0
 18 32  1  0  0  0
 19 20  1  0  0  0
 20 33  1  0  0  0
 20 34  1  0  0  0
M  END
> <s_m_entry_id>
363

> <s_m_entry_name>
7ge4.pdb.1_ligand

> <s_pdb_PDB_TITLE>
GROUP DEPOSITION SARS-COV-2 MAIN PROTEASE IN COMPLEX WITH INHIBITORS FROM THE COVID MOONSHOT -- CRYSTAL STRUCTURE OF SARS-COV-2 MAIN PROTEASE IN COMPLEX WITH TRY-UNI-714A760B-19 (MPRO-X11318)

> <s_pdb_PDB_ID>
7GE4

> <s_m_Source_File>
7ge4.pdb.gz

> <s_user_Compound_ID>
TRY-UNI-714a760b-19

> <s_user_Monomer-Dimer>
Monomer

> <s_user_xcode>
Mpro-x11318

$$$$
