7GE5_ligand
                    3D
 Schrodinger Suite 2021-2.
 28 29  0  0  1  0            999 V2000
    8.2515   -0.9064   21.2061 N   0  0  0  0  0  0
    7.2161   -1.4087   19.0411 C   0  0  0  0  0  0
    8.2980   -1.4928   19.9193 C   0  0  0  0  0  0
    7.5810   -1.3917   22.2748 C   0  0  0  0  0  0
    7.3628   -0.3857   23.3881 C   0  0  2  0  0  0
    8.0083   -0.6073   24.7341 C   0  0  0  0  0  0
    5.4496   -0.0953   25.0637 C   0  0  0  0  0  0
    4.2797   -0.8620   25.0955 F   0  0  0  0  0  0
    6.5695   -0.9577   24.5449 C   0  0  1  0  0  0
    7.1193   -2.5268   22.3371 O   0  0  0  0  0  0
    9.4480   -2.1896   19.5046 C   0  0  0  0  0  0
   10.6607   -2.3283   20.3886 C   0  0  0  0  0  0
    7.2116   -1.9558   17.8213 N   0  0  0  0  0  0
    8.3101   -2.6157   17.4406 C   0  0  0  0  0  0
    9.4303   -2.7551   18.2347 C   0  0  0  0  0  0
    8.7498   -0.0469   21.3877 H   0  0  0  0  0  0
    6.3216   -0.8798   19.3353 H   0  0  0  0  0  0
    7.1522    0.6436   23.0979 H   0  0  0  0  0  0
    7.8928    0.3928   25.1519 H   0  0  0  0  0  0
    8.4531   -1.5866   24.5573 H   0  0  0  0  0  0
    5.6892    0.2433   26.0717 H   0  0  0  0  0  0
    5.3080    0.7555   24.3971 H   0  0  0  0  0  0
    6.3505   -2.0236   24.4821 H   0  0  0  0  0  0
   11.4268   -2.9028   19.8679 H   0  0  0  0  0  0
   11.0502   -1.3392   20.6298 H   0  0  0  0  0  0
   10.3835   -2.8433   21.3084 H   0  0  0  0  0  0
    8.3528   -3.0753   16.4641 H   0  0  0  0  0  0
   10.2901   -3.3001   17.8742 H   0  0  0  0  0  0
  1  3  1  0  0  0
  1  4  1  0  0  0
  1 16  1  0  0  0
  2  3  1  0  0  0
  2 13  2  0  0  0
  2 17  1  0  0  0
  3 11  2  0  0  0
  4  5  1  0  0  0
  4 10  2  0  0  0
  5  6  1  0  0  0
  5  9  1  0  0  0
  5 18  1  0  0  0
  6  9  1  0  0  0
  6 19  1  0  0  0
  6 20  1  0  0  0
  7  8  1  0  0  0
  7  9  1  0  0  0
  7 21  1  0  0  0
  7 22  1  0  0  0
  9 23  1  0  0  0
 11 12  1  0  0  0
 11 15  1  0  0  0
 12 24  1  0  0  0
 12 25  1  0  0  0
 12 26  1  0  0  0
 13 14  1  0  0  0
 14 15  2  0  0  0
 14 27  1  0  0  0
 15 28  1  0  0  0
M  END
> <s_m_entry_id>
365

> <s_m_entry_name>
7ge5.pdb.1_ligand

> <s_pdb_PDB_TITLE>
GROUP DEPOSITION SARS-COV-2 MAIN PROTEASE IN COMPLEX WITH INHIBITORS FROM THE COVID MOONSHOT -- CRYSTAL STRUCTURE OF SARS-COV-2 MAIN PROTEASE IN COMPLEX WITH ERI-UCB-5B47150D-6 (MPRO-X11339)

> <s_pdb_PDB_ID>
7GE5

> <s_m_Source_File>
7ge5.pdb.gz

> <s_user_Compound_ID>
ERI-UCB-5b47150d-6

> <s_user_Monomer-Dimer>
Monomer

> <s_user_xcode>
Mpro-x11339

$$$$
