7GE6_ligand
                    3D
 Schrodinger Suite 2021-2.
 34 35  0  0  1  0            999 V2000
    7.2538   -1.3711   17.8836 N   0  0  0  0  0  0
    8.8280   -2.7013   18.6213 N   0  0  0  0  0  0
    5.3850   -1.6906   26.2484 C   0  0  0  0  0  0
    6.8242   -0.7228   24.4254 C   0  0  0  0  0  0
    8.0505   -0.5095   23.8103 C   0  0  0  0  0  0
    8.1127   -0.0391   22.3756 C   0  0  0  0  0  0
    8.0782   -1.2249   21.4317 C   0  0  0  0  0  0
    8.4147   -3.1467   17.4282 C   0  0  0  0  0  0
    7.9378   -2.3755   21.8416 O   0  0  0  0  0  0
    6.7291   -1.3665   25.6497 C   0  0  0  0  0  0
    7.9043   -1.7532   26.2816 C   0  0  0  0  0  0
    9.2062   -0.8915   24.4807 C   0  0  0  0  0  0
    9.1528   -1.5175   25.7189 C   0  0  0  0  0  0
   10.4149   -1.9553   26.4199 C   0  0  0  0  0  0
    8.0147   -0.8988   20.1053 N   0  0  0  0  0  0
    8.0671   -1.5686   18.9076 C   0  0  0  0  0  0
    9.9298   -3.2674   19.3960 C   0  0  0  0  0  0
    7.4757   -2.3806   16.9580 N   0  0  0  0  0  0
    6.6210   -0.5839   17.8859 H   0  0  0  0  0  0
    5.5246   -2.1925   27.2058 H   0  0  0  0  0  0
    4.8226   -0.7693   26.4002 H   0  0  0  0  0  0
    4.8340   -2.3449   25.5728 H   0  0  0  0  0  0
    5.9155   -0.3844   23.9499 H   0  0  0  0  0  0
    9.0325    0.5240   22.2177 H   0  0  0  0  0  0
    7.2638    0.6131   22.1703 H   0  0  0  0  0  0
    8.8615   -4.0305   16.9974 H   0  0  0  0  0  0
    7.8640   -2.2525   27.2384 H   0  0  0  0  0  0
   10.1738   -0.7028   24.0396 H   0  0  0  0  0  0
   11.2803   -1.6790   25.8175 H   0  0  0  0  0  0
   10.4790   -1.4673   27.3924 H   0  0  0  0  0  0
   10.3986   -3.0366   26.5569 H   0  0  0  0  0  0
   10.0457   -2.7093   20.3250 H   0  0  0  0  0  0
    9.7154   -4.3114   19.6242 H   0  0  0  0  0  0
   10.8514   -3.2044   18.8174 H   0  0  0  0  0  0
  1 16  1  0  0  0
  1 18  1  0  0  0
  1 19  1  0  0  0
  2  8  1  0  0  0
  2 16  1  0  0  0
  2 17  1  0  0  0
  3 10  1  0  0  0
  3 20  1  0  0  0
  3 21  1  0  0  0
  3 22  1  0  0  0
  4  5  1  0  0  0
  4 10  2  0  0  0
  4 23  1  0  0  0
  5  6  1  0  0  0
  5 12  2  0  0  0
  6  7  1  0  0  0
  6 24  1  0  0  0
  6 25  1  0  0  0
  7  9  2  0  0  0
  7 15  1  0  0  0
  8 18  2  0  0  0
  8 26  1  0  0  0
 10 11  1  0  0  0
 11 13  2  0  0  0
 11 27  1  0  0  0
 12 13  1  0  0  0
 12 28  1  0  0  0
 13 14  1  0  0  0
 14 29  1  0  0  0
 14 30  1  0  0  0
 14 31  1  0  0  0
 15 16  2  0  0  0
 17 32  1  0  0  0
 17 33  1  0  0  0
 17 34  1  0  0  0
M  END
> <s_m_entry_id>
367

> <s_m_entry_name>
7ge6.pdb.1_ligand

> <s_pdb_PDB_TITLE>
GROUP DEPOSITION SARS-COV-2 MAIN PROTEASE IN COMPLEX WITH INHIBITORS FROM THE COVID MOONSHOT -- CRYSTAL STRUCTURE OF SARS-COV-2 MAIN PROTEASE IN COMPLEX WITH JAG-UCB-A3EF7265-18 (MPRO-X11346)

> <s_pdb_PDB_ID>
7GE6

> <s_m_Source_File>
7ge6.pdb.gz

> <s_user_Compound_ID>
JAG-UCB-a3ef7265-18

> <s_user_Monomer-Dimer>
Monomer

> <s_user_xcode>
Mpro-x11346

$$$$
