7GE7_ligand
                    3D
 Schrodinger Suite 2021-2.
 41 43  0  0  1  0            999 V2000
    7.8319   -0.2077   23.0228 N   0  0  0  0  0  0
    7.2187   -1.4077   18.9274 C   0  0  0  0  0  0
    8.4322   -1.5604   19.5752 C   0  0  0  0  0  0
    8.7285   -0.8183   20.8613 C   0  0  0  0  0  0
    7.8503   -1.1580   22.0513 C   0  0  0  0  0  0
    7.1299   -0.1448   24.2615 C   0  0  0  0  0  0
    5.1546   -0.5779   25.5519 C   0  0  0  0  0  0
    7.5413    1.3648   27.7519 C   0  0  0  0  0  0
    9.1082    1.1048   25.2456 C   0  0  0  0  0  0
    7.2389   -2.2225   22.1156 O   0  0  0  0  0  0
    6.9101   -1.9744   17.7566 N   0  0  0  0  0  0
    7.8499   -2.7288   17.1785 C   0  0  0  0  0  0
    9.0869   -2.9607   17.7448 C   0  0  0  0  0  0
    9.3971   -2.3824   18.9700 C   0  0  0  0  0  0
   10.7206   -2.6864   19.6251 C   0  0  0  0  0  0
    7.7200    0.5268   25.3590 C   0  0  0  0  0  0
    9.6737    1.5059   26.5375 N   0  3  0  0  0  0
    8.6947    2.2534   27.3535 C   0  0  0  0  0  0
    6.9832    0.6416   26.5507 C   0  0  0  0  0  0
    5.7102    0.0830   26.6314 C   0  0  0  0  0  0
    5.8546   -0.6912   24.3654 C   0  0  0  0  0  0
    8.3873    0.6297   22.9208 H   0  0  0  0  0  0
    6.4447   -0.7966   19.3677 H   0  0  0  0  0  0
    8.6825    0.2548   20.6756 H   0  0  0  0  0  0
    9.7736   -0.9702   21.1311 H   0  0  0  0  0  0
    4.1679   -1.0095   25.6324 H   0  0  0  0  0  0
    6.7576    1.9699   28.2078 H   0  0  0  0  0  0
    7.8817    0.6367   28.4882 H   0  0  0  0  0  0
    9.0886    1.9650   24.5764 H   0  0  0  0  0  0
    9.7663    0.3757   24.7731 H   0  0  0  0  0  0
    7.6581   -3.1913   16.2216 H   0  0  0  0  0  0
    9.8047   -3.5872   17.2362 H   0  0  0  0  0  0
   11.3053   -3.3400   18.9779 H   0  0  0  0  0  0
   11.2662   -1.7575   19.7910 H   0  0  0  0  0  0
   10.5483   -3.1816   20.5807 H   0  0  0  0  0  0
   10.4904    2.0797   26.3833 H   0  0  0  0  0  0
    9.9744    0.6844   27.0423 H   0  0  0  0  0  0
    9.1849    2.6353   28.2490 H   0  0  0  0  0  0
    8.3186    3.1019   26.7820 H   0  0  0  0  0  0
    5.1556    0.1716   27.5539 H   0  0  0  0  0  0
    5.4153   -1.2014   23.5209 H   0  0  0  0  0  0
  1  5  1  0  0  0
  1  6  1  0  0  0
  1 22  1  0  0  0
  2  3  1  0  0  0
  2 11  2  0  0  0
  2 23  1  0  0  0
  3  4  1  0  0  0
  3 14  2  0  0  0
  4  5  1  0  0  0
  4 24  1  0  0  0
  4 25  1  0  0  0
  5 10  2  0  0  0
  6 16  1  0  0  0
  6 21  2  0  0  0
  7 20  2  0  0  0
  7 21  1  0  0  0
  7 26  1  0  0  0
  8 18  1  0  0  0
  8 19  1  0  0  0
  8 27  1  0  0  0
  8 28  1  0  0  0
  9 16  1  0  0  0
  9 17  1  0  0  0
  9 29  1  0  0  0
  9 30  1  0  0  0
 11 12  1  0  0  0
 12 13  2  0  0  0
 12 31  1  0  0  0
 13 14  1  0  0  0
 13 32  1  0  0  0
 14 15  1  0  0  0
 15 33  1  0  0  0
 15 34  1  0  0  0
 15 35  1  0  0  0
 16 19  2  0  0  0
 17 18  1  0  0  0
 17 36  1  0  0  0
 17 37  1  0  0  0
 18 38  1  0  0  0
 18 39  1  0  0  0
 19 20  1  0  0  0
 20 40  1  0  0  0
 21 41  1  0  0  0
M  CHG  1  17   1
M  END
> <s_m_entry_id>
369

> <s_m_entry_name>
7ge7.pdb.1_ligand

> <s_pdb_PDB_TITLE>
GROUP DEPOSITION SARS-COV-2 MAIN PROTEASE IN COMPLEX WITH INHIBITORS FROM THE COVID MOONSHOT -- CRYSTAL STRUCTURE OF SARS-COV-2 MAIN PROTEASE IN COMPLEX WITH ADA-UCB-6C2CB422-3 (MPRO-X11354)

> <s_pdb_PDB_ID>
7GE7

> <s_m_Source_File>
7ge7.pdb.gz

> <s_user_Compound_ID>
ADA-UCB-6c2cb422-3

> <s_user_Monomer-Dimer>
Monomer

> <s_user_xcode>
Mpro-x11354

$$$$
