7GE8_ligand
                    3D
 Schrodinger Suite 2021-2.
 44 47  0  0  1  0            999 V2000
    9.4492   -0.0196   21.0832 N   0  0  0  0  0  0
    6.4103   -0.0905   25.1842 C   0  0  0  0  0  0
    7.6425    0.4968   24.9029 C   0  0  0  0  0  0
    8.7629    1.4632   22.9090 C   0  0  0  0  0  0
    9.8799    1.0911   21.9425 C   0  0  0  0  0  0
    8.9906   -1.2014   21.8283 C   0  0  0  0  0  0
    9.4710    0.0753   19.7421 C   0  0  0  0  0  0
    7.6088   -2.4086   17.5825 C   0  0  0  0  0  0
   10.9029   -4.0693   17.3074 C   0  0  0  0  0  0
   12.5413   -2.8967   18.6104 C   0  0  0  0  0  0
    6.4618   -2.6284   17.2015 O   0  0  0  0  0  0
    7.9654   -1.3225   18.4267 C   0  0  0  0  0  0
    8.6218   -3.2703   17.2537 N   0  0  0  0  0  0
    9.9278   -3.1571   17.7115 C   0  0  0  0  0  0
   10.2691   -2.0927   18.5704 C   0  0  0  0  0  0
   11.5836   -1.9855   19.0270 C   0  0  0  0  0  0
   12.2068   -3.9202   17.7505 C   0  0  0  0  0  0
    9.2152   -1.1404   18.9197 C   0  0  0  0  0  0
    9.6864    1.1348   19.1716 O   0  0  0  0  0  0
    7.8834   -0.8132   22.8020 C   0  0  0  0  0  0
    8.3279    0.2834   23.6702 N   0  0  0  0  0  0
    8.2184    1.3047   25.9079 C   0  0  0  0  0  0
    9.3766    1.9507   25.6347 F   0  0  0  0  0  0
    5.8053    0.1103   26.4176 C   0  0  0  0  0  0
    6.4151    0.8886   27.3879 C   0  0  0  0  0  0
    7.6325    1.4953   27.1371 C   0  0  0  0  0  0
    5.9225   -0.7043   24.4414 H   0  0  0  0  0  0
    7.9183    1.8660   22.3499 H   0  0  0  0  0  0
    9.1192    2.2288   23.5982 H   0  0  0  0  0  0
   10.1272    1.9538   21.3240 H   0  0  0  0  0  0
   10.7634    0.7922   22.5065 H   0  0  0  0  0  0
    9.8269   -1.6289   22.3814 H   0  0  0  0  0  0
    8.6139   -1.9478   21.1290 H   0  0  0  0  0  0
   10.6394   -4.8865   16.6523 H   0  0  0  0  0  0
   13.5594   -2.8080   18.9599 H   0  0  0  0  0  0
    7.2232   -0.5894   18.7062 H   0  0  0  0  0  0
    8.4410   -4.0513   16.6393 H   0  0  0  0  0  0
   11.8540   -1.1906   19.7063 H   0  0  0  0  0  0
   12.9708   -4.6092   17.4222 H   0  0  0  0  0  0
    7.6188   -1.6759   23.4134 H   0  0  0  0  0  0
    7.0020   -0.4992   22.2429 H   0  0  0  0  0  0
    4.8481   -0.3428   26.6298 H   0  0  0  0  0  0
    5.9398    1.0251   28.3480 H   0  0  0  0  0  0
    8.1228    2.1069   27.8800 H   0  0  0  0  0  0
  1  5  1  0  0  0
  1  6  1  0  0  0
  1  7  1  0  0  0
  2  3  1  0  0  0
  2 24  2  0  0  0
  2 27  1  0  0  0
  3 21  1  0  0  0
  3 22  2  0  0  0
  4  5  1  0  0  0
  4 21  1  0  0  0
  4 28  1  0  0  0
  4 29  1  0  0  0
  5 30  1  0  0  0
  5 31  1  0  0  0
  6 20  1  0  0  0
  6 32  1  0  0  0
  6 33  1  0  0  0
  7 18  1  0  0  0
  7 19  2  0  0  0
  8 11  2  0  0  0
  8 12  1  0  0  0
  8 13  1  0  0  0
  9 14  1  0  0  0
  9 17  2  0  0  0
  9 34  1  0  0  0
 10 16  2  0  0  0
 10 17  1  0  0  0
 10 35  1  0  0  0
 12 18  2  0  0  0
 12 36  1  0  0  0
 13 14  1  0  0  0
 13 37  1  0  0  0
 14 15  2  0  0  0
 15 16  1  0  0  0
 15 18  1  0  0  0
 16 38  1  0  0  0
 17 39  1  0  0  0
 20 21  1  0  0  0
 20 40  1  0  0  0
 20 41  1  0  0  0
 22 23  1  0  0  0
 22 26  1  0  0  0
 24 25  1  0  0  0
 24 42  1  0  0  0
 25 26  2  0  0  0
 25 43  1  0  0  0
 26 44  1  0  0  0
M  END
> <s_m_entry_id>
371

> <s_m_entry_name>
7ge8.pdb.1_ligand

> <s_pdb_PDB_TITLE>
GROUP DEPOSITION SARS-COV-2 MAIN PROTEASE IN COMPLEX WITH INHIBITORS FROM THE COVID MOONSHOT -- CRYSTAL STRUCTURE OF SARS-COV-2 MAIN PROTEASE IN COMPLEX WITH BEN-DND-7E92B6CA-16 (MPRO-X11366)

> <s_pdb_PDB_ID>
7GE8

> <s_m_Source_File>
7ge8.pdb.gz

> <s_user_Compound_ID>
BEN-DND-7e92b6ca-16

> <s_user_Monomer-Dimer>
Monomer

> <s_user_xcode>
Mpro-x11366

$$$$
