7GE9_ligand
                    3D
 Schrodinger Suite 2021-2.
 31 32  0  0  1  0            999 V2000
    8.7226   -0.9747   20.4701 N   0  0  0  0  0  0
    7.2191   -1.4991   18.6155 C   0  0  0  0  0  0
    8.4605   -1.6088   19.2356 C   0  0  0  0  0  0
    8.2325   -1.3896   21.6523 C   0  0  0  0  0  0
    8.7408   -0.6069   22.8460 C   0  0  0  0  0  0
    7.8441   -0.7964   24.0449 C   0  0  0  0  0  0
    7.2712   -1.9814   26.0663 C   0  0  0  0  0  0
    6.6346   -0.1182   24.1141 C   0  0  0  0  0  0
    4.1161    0.5424   25.2147 Br  0  0  0  0  0  0
    5.7543   -0.4105   25.1322 C   0  0  0  0  0  0
    6.0408   -1.3452   26.1081 C   0  0  0  0  0  0
    8.1625   -1.7094   25.0399 C   0  0  0  0  0  0
    7.4856   -2.3572   21.7777 O   0  0  0  0  0  0
    9.4437   -2.4185   18.6466 C   0  0  0  0  0  0
   10.7881   -2.6434   19.2911 C   0  0  0  0  0  0
    6.9059   -2.1357   17.4832 N   0  0  0  0  0  0
    7.8497   -2.9056   16.9302 C   0  0  0  0  0  0
    9.1110   -3.0663   17.4632 C   0  0  0  0  0  0
    9.3117   -0.1549   20.5017 H   0  0  0  0  0  0
    6.4519   -0.8750   19.0495 H   0  0  0  0  0  0
    8.7881    0.4520   22.5920 H   0  0  0  0  0  0
    9.7504   -0.9359   23.0923 H   0  0  0  0  0  0
    7.5382   -2.6917   26.8348 H   0  0  0  0  0  0
    6.3919    0.6300   23.3740 H   0  0  0  0  0  0
    5.3351   -1.5850   26.8898 H   0  0  0  0  0  0
    9.1149   -2.2183   25.0212 H   0  0  0  0  0  0
   11.3877   -3.3013   18.6621 H   0  0  0  0  0  0
   11.2997   -1.6881   19.4083 H   0  0  0  0  0  0
   10.6501   -3.1035   20.2695 H   0  0  0  0  0  0
    7.6417   -3.4427   16.0166 H   0  0  0  0  0  0
    9.8386   -3.6912   16.9667 H   0  0  0  0  0  0
  1  3  1  0  0  0
  1  4  1  0  0  0
  1 19  1  0  0  0
  2  3  1  0  0  0
  2 16  2  0  0  0
  2 20  1  0  0  0
  3 14  2  0  0  0
  4  5  1  0  0  0
  4 13  2  0  0  0
  5  6  1  0  0  0
  5 21  1  0  0  0
  5 22  1  0  0  0
  6  8  1  0  0  0
  6 12  2  0  0  0
  7 11  2  0  0  0
  7 12  1  0  0  0
  7 23  1  0  0  0
  8 10  2  0  0  0
  8 24  1  0  0  0
  9 10  1  0  0  0
 10 11  1  0  0  0
 11 25  1  0  0  0
 12 26  1  0  0  0
 14 15  1  0  0  0
 14 18  1  0  0  0
 15 27  1  0  0  0
 15 28  1  0  0  0
 15 29  1  0  0  0
 16 17  1  0  0  0
 17 18  2  0  0  0
 17 30  1  0  0  0
 18 31  1  0  0  0
M  END
> <s_m_entry_id>
373

> <s_m_entry_name>
7ge9.pdb.1_ligand

> <s_pdb_PDB_TITLE>
GROUP DEPOSITION SARS-COV-2 MAIN PROTEASE IN COMPLEX WITH INHIBITORS FROM THE COVID MOONSHOT -- CRYSTAL STRUCTURE OF SARS-COV-2 MAIN PROTEASE IN COMPLEX WITH JAN-GHE-83B26C96-12 (MPRO-X11368)

> <s_pdb_PDB_ID>
7GE9

> <s_m_Source_File>
7ge9.pdb.gz

> <s_user_Compound_ID>
JAN-GHE-83b26c96-12 

> <s_user_Monomer-Dimer>
Monomer

> <s_user_xcode>
Mpro-x11368

$$$$
