7GEA_ligand
                    3D
 Schrodinger Suite 2021-2.
 38 39  0  0  1  0            999 V2000
    6.8184   -1.9599   17.6262 N   0  0  0  0  0  0
    7.0413   -1.3945   18.8163 C   0  0  0  0  0  0
    7.8302   -2.6252   17.0548 C   0  0  0  0  0  0
    9.0818   -2.7651   17.6194 C   0  0  0  0  0  0
    9.3032   -2.1829   18.8658 C   0  0  0  0  0  0
   11.7271   -2.7692   19.0902 C   0  0  0  0  0  0
    7.4317   -1.2481   24.3260 C   0  0  0  0  0  0
    5.4263   -1.6321   26.2328 C   0  0  0  0  0  0
    6.2463   -0.5245   24.2527 C   0  0  0  0  0  0
    3.8204    0.2452   25.1461 Cl  0  0  0  0  0  0
    5.2690   -0.7202   25.2091 C   0  0  0  0  0  0
    6.6136   -2.3406   26.3137 C   0  0  0  0  0  0
    7.6104   -2.1429   25.3721 C   0  0  0  0  0  0
    8.5077   -1.0639   23.2617 C   0  0  2  0  0  0
    9.1751    0.3201   23.4021 C   0  0  0  0  0  0
    8.0014   -1.6336   21.9249 C   0  0  0  0  0  0
    7.3217   -2.6530   21.8823 O   0  0  0  0  0  0
    8.4259   -0.9929   20.7999 N   0  0  0  0  0  0
    8.2577   -1.4836   19.4852 C   0  0  0  0  0  0
   10.5388   -2.3010   19.5443 N   0  0  0  0  0  0
   12.8418   -2.7333   20.0933 C   0  0  0  0  0  0
   11.8955   -3.1817   17.9419 O   0  0  0  0  0  0
    6.2563   -0.8359   19.3043 H   0  0  0  0  0  0
    7.6927   -3.0939   16.0916 H   0  0  0  0  0  0
    9.8521   -3.3121   17.0962 H   0  0  0  0  0  0
    4.6325   -1.7812   26.9498 H   0  0  0  0  0  0
    6.0950    0.1844   23.4521 H   0  0  0  0  0  0
    6.7654   -3.0506   27.1133 H   0  0  0  0  0  0
    8.5348   -2.6945   25.4588 H   0  0  0  0  0  0
    9.2905   -1.7609   23.5609 H   0  0  0  0  0  0
    9.9405    0.4345   22.6345 H   0  0  0  0  0  0
    8.4232    1.1003   23.2837 H   0  0  0  0  0  0
    9.6337    0.4047   24.3873 H   0  0  0  0  0  0
    8.8977   -0.1029   20.8733 H   0  0  0  0  0  0
   10.6147   -2.0123   20.5092 H   0  0  0  0  0  0
   13.7518   -3.1269   19.6402 H   0  0  0  0  0  0
   13.0110   -1.7050   20.4126 H   0  0  0  0  0  0
   12.5739   -3.3420   20.9569 H   0  0  0  0  0  0
  1  2  1  0  0  0
  1  3  2  0  0  0
  2 19  2  0  0  0
  2 23  1  0  0  0
  3  4  1  0  0  0
  3 24  1  0  0  0
  4  5  2  0  0  0
  4 25  1  0  0  0
  5 19  1  0  0  0
  5 20  1  0  0  0
  6 20  1  0  0  0
  6 21  1  0  0  0
  6 22  2  0  0  0
  7  9  1  0  0  0
  7 13  2  0  0  0
  7 14  1  0  0  0
  8 11  1  0  0  0
  8 12  2  0  0  0
  8 26  1  0  0  0
  9 11  2  0  0  0
  9 27  1  0  0  0
 10 11  1  0  0  0
 12 13  1  0  0  0
 12 28  1  0  0  0
 13 29  1  0  0  0
 14 15  1  0  0  0
 14 16  1  0  0  0
 14 30  1  0  0  0
 15 31  1  0  0  0
 15 32  1  0  0  0
 15 33  1  0  0  0
 16 17  2  0  0  0
 16 18  1  0  0  0
 18 19  1  0  0  0
 18 34  1  0  0  0
 20 35  1  0  0  0
 21 36  1  0  0  0
 21 37  1  0  0  0
 21 38  1  0  0  0
M  END
> <s_m_entry_id>
375

> <s_m_entry_name>
7gea.pdb.1_ligand

> <s_pdb_PDB_TITLE>
GROUP DEPOSITION SARS-COV-2 MAIN PROTEASE IN COMPLEX WITH INHIBITORS FROM THE COVID MOONSHOT -- CRYSTAL STRUCTURE OF SARS-COV-2 MAIN PROTEASE IN COMPLEX WITH JAN-GHE-83B26C96-2 (MPRO-X11372)

> <s_pdb_PDB_ID>
7GEA

> <s_m_Source_File>
7gea.pdb.gz

> <s_user_Compound_ID>
JAN-GHE-83b26c96-2

> <s_user_Monomer-Dimer>
Monomer

> <s_user_xcode>
Mpro-x11372

$$$$
