7GEB_ligand
                    3D
 Schrodinger Suite 2021-2.
 41 42  0  0  1  0            999 V2000
    7.7891   -0.5752   24.2617 N   0  3  0  0  0  0
    6.9596   -2.0723   17.6371 N   0  0  0  0  0  0
    8.5926   -0.3932   23.0553 C   0  0  0  0  0  0
    8.0634   -1.1821   21.8688 C   0  0  0  0  0  0
    8.4540   -1.5388   19.4428 C   0  0  0  0  0  0
    7.2270   -1.4477   18.7862 C   0  0  0  0  0  0
    7.9335   -2.8108   17.0983 C   0  0  0  0  0  0
    9.4754   -2.3164   18.8590 C   0  0  0  0  0  0
    7.7904   -1.0324   26.6915 C   0  0  0  0  0  0
    7.1696   -2.0139   22.0059 O   0  0  0  0  0  0
    8.6739   -0.9035   20.6918 N   0  0  0  0  0  0
   10.8320   -2.4664   19.4950 C   0  0  0  0  0  0
    9.1856   -2.9543   17.6603 C   0  0  0  0  0  0
    6.9621    0.6151   24.5037 C   0  0  0  0  0  0
    6.0933    0.4343   25.7421 C   0  0  0  0  0  0
    8.6418   -0.8436   25.4352 C   0  0  0  0  0  0
    6.9381    0.1468   26.9022 N   0  0  0  0  0  0
    6.9708    0.9556   27.9874 C   0  0  0  0  0  0
    6.4206    0.6354   29.0213 O   0  0  0  0  0  0
    7.6959    2.2558   27.8755 C   0  0  0  0  0  0
    7.1776   -1.3669   24.1226 H   0  0  0  0  0  0
    9.6218   -0.6899   23.2574 H   0  0  0  0  0  0
    8.6273    0.6658   22.7996 H   0  0  0  0  0  0
    6.4728   -0.8330   19.2549 H   0  0  0  0  0  0
    7.7620   -3.3372   16.1710 H   0  0  0  0  0  0
    8.4420   -1.1684   27.5546 H   0  0  0  0  0  0
    7.1642   -1.9170   26.5761 H   0  0  0  0  0  0
    9.3693   -0.1725   20.6443 H   0  0  0  0  0  0
   11.4566   -3.1076   18.8730 H   0  0  0  0  0  0
   11.2997   -1.4864   19.5900 H   0  0  0  0  0  0
   10.7233   -2.9138   20.4829 H   0  0  0  0  0  0
    9.9324   -3.5596   17.1680 H   0  0  0  0  0  0
    6.3260    0.7972   23.6375 H   0  0  0  0  0  0
    7.6067    1.4840   24.6364 H   0  0  0  0  0  0
    5.4016   -0.3929   25.5827 H   0  0  0  0  0  0
    5.5255    1.3469   25.9236 H   0  0  0  0  0  0
    9.3280   -0.0098   25.5837 H   0  0  0  0  0  0
    9.2310   -1.7433   25.2575 H   0  0  0  0  0  0
    7.6337    2.7899   28.8236 H   0  0  0  0  0  0
    8.7419    2.0693   27.6322 H   0  0  0  0  0  0
    7.2424    2.8588   27.0889 H   0  0  0  0  0  0
  1  3  1  0  0  0
  1 14  1  0  0  0
  1 16  1  0  0  0
  1 21  1  0  0  0
  2  6  1  0  0  0
  2  7  2  0  0  0
  3  4  1  0  0  0
  3 22  1  0  0  0
  3 23  1  0  0  0
  4 10  2  0  0  0
  4 11  1  0  0  0
  5  6  2  0  0  0
  5  8  1  0  0  0
  5 11  1  0  0  0
  6 24  1  0  0  0
  7 13  1  0  0  0
  7 25  1  0  0  0
  8 12  1  0  0  0
  8 13  2  0  0  0
  9 16  1  0  0  0
  9 17  1  0  0  0
  9 26  1  0  0  0
  9 27  1  0  0  0
 11 28  1  0  0  0
 12 29  1  0  0  0
 12 30  1  0  0  0
 12 31  1  0  0  0
 13 32  1  0  0  0
 14 15  1  0  0  0
 14 33  1  0  0  0
 14 34  1  0  0  0
 15 17  1  0  0  0
 15 35  1  0  0  0
 15 36  1  0  0  0
 16 37  1  0  0  0
 16 38  1  0  0  0
 17 18  1  0  0  0
 18 19  2  0  0  0
 18 20  1  0  0  0
 20 39  1  0  0  0
 20 40  1  0  0  0
 20 41  1  0  0  0
M  CHG  1   1   1
M  END
> <s_m_entry_id>
377

> <s_m_entry_name>
7geb.pdb.1_ligand

> <s_pdb_PDB_TITLE>
GROUP DEPOSITION SARS-COV-2 MAIN PROTEASE IN COMPLEX WITH INHIBITORS FROM THE COVID MOONSHOT -- CRYSTAL STRUCTURE OF SARS-COV-2 MAIN PROTEASE IN COMPLEX WITH BEN-DND-93268D01-8 (MPRO-X11417)

> <s_pdb_PDB_ID>
7GEB

> <s_m_Source_File>
7geb.pdb.gz

> <s_user_Compound_ID>
BEN-DND-93268d01-8

> <s_user_Monomer-Dimer>
Monomer

> <s_user_xcode>
Mpro-x11417

$$$$
