7GEC_ligand
                    3D
 Schrodinger Suite 2021-2.
 32 34  0  0  1  0            999 V2000
    7.9014   -2.9258   16.7981 N   0  0  0  0  0  0
    7.5843   -0.6706   23.9992 C   0  0  0  0  0  0
    8.4495   -0.2700   22.8260 C   0  0  0  0  0  0
    8.3898   -1.2602   21.6805 C   0  0  0  0  0  0
    9.6957   -1.9560   19.6834 C   0  0  0  0  0  0
   10.9284   -2.6048   19.5449 C   0  0  0  0  0  0
   10.2313   -3.5765   17.4545 C   0  0  0  0  0  0
    8.7125   -2.1049   18.6898 C   0  0  0  0  0  0
    7.5099   -2.1177   21.5968 O   0  0  0  0  0  0
    7.9169   -1.7483   24.8118 C   0  0  0  0  0  0
    7.0638   -2.1630   25.8261 C   0  0  0  0  0  0
    5.8574   -1.5108   26.0299 C   0  0  0  0  0  0
    6.3956    0.0038   24.2333 C   0  0  0  0  0  0
    5.5417   -0.4383   25.2175 C   0  0  0  0  0  0
    3.9878    0.3347   25.3797 Cl  0  0  0  0  0  0
    9.4217   -1.1480   20.8145 N   0  0  0  0  0  0
    7.3944   -1.6487   18.4459 C   0  0  0  0  0  0
    6.9133   -2.1384   17.3199 N   0  0  0  0  0  0
    9.0079   -2.9299   17.5868 C   0  0  0  0  0  0
   11.1902   -3.4003   18.4398 C   0  0  0  0  0  0
    7.7510   -3.4138   15.9267 H   0  0  0  0  0  0
    9.4821   -0.1620   23.1579 H   0  0  0  0  0  0
    8.1440    0.7140   22.4703 H   0  0  0  0  0  0
   11.6881   -2.4885   20.3037 H   0  0  0  0  0  0
   10.4210   -4.2027   16.5953 H   0  0  0  0  0  0
    8.8480   -2.2735   24.6579 H   0  0  0  0  0  0
    7.3397   -2.9946   26.4575 H   0  0  0  0  0  0
    5.1885   -1.8437   26.8097 H   0  0  0  0  0  0
    6.1426    0.8728   23.6440 H   0  0  0  0  0  0
   10.1096   -0.4193   20.9403 H   0  0  0  0  0  0
    6.9150   -0.9824   19.1478 H   0  0  0  0  0  0
   12.1482   -3.8892   18.3411 H   0  0  0  0  0  0
  1 18  1  0  0  0
  1 19  1  0  0  0
  1 21  1  0  0  0
  2  3  1  0  0  0
  2 10  1  0  0  0
  2 13  2  0  0  0
  3  4  1  0  0  0
  3 22  1  0  0  0
  3 23  1  0  0  0
  4  9  2  0  0  0
  4 16  1  0  0  0
  5  6  2  0  0  0
  5  8  1  0  0  0
  5 16  1  0  0  0
  6 20  1  0  0  0
  6 24  1  0  0  0
  7 19  1  0  0  0
  7 20  2  0  0  0
  7 25  1  0  0  0
  8 17  1  0  0  0
  8 19  2  0  0  0
 10 11  2  0  0  0
 10 26  1  0  0  0
 11 12  1  0  0  0
 11 27  1  0  0  0
 12 14  2  0  0  0
 12 28  1  0  0  0
 13 14  1  0  0  0
 13 29  1  0  0  0
 14 15  1  0  0  0
 16 30  1  0  0  0
 17 18  2  0  0  0
 17 31  1  0  0  0
 20 32  1  0  0  0
M  END
> <s_m_entry_id>
379

> <s_m_entry_name>
7gec.pdb.1_ligand

> <s_pdb_PDB_TITLE>
GROUP DEPOSITION SARS-COV-2 MAIN PROTEASE IN COMPLEX WITH INHIBITORS FROM THE COVID MOONSHOT -- CRYSTAL STRUCTURE OF SARS-COV-2 MAIN PROTEASE IN COMPLEX WITH VLA-UCB-00F2C2B3-7 (MPRO-X11424)

> <s_pdb_PDB_ID>
7GEC

> <s_m_Source_File>
7gec.pdb.gz

> <s_user_Compound_ID>
VLA-UCB-00f2c2b3-7

> <s_user_Monomer-Dimer>
Monomer

> <s_user_xcode>
Mpro-x11424

$$$$
