7GED_ligand
                    3D
 Schrodinger Suite 2021-2.
 28 29  0  0  1  0            999 V2000
    6.9957   -1.9920   17.4999 N   0  0  0  0  0  0
    7.0009   -2.1941   25.9538 C   0  0  0  0  0  0
    5.8114   -1.4858   26.0392 C   0  0  0  0  0  0
    5.6000   -0.4410   25.1652 C   0  0  0  0  0  0
    6.5316   -0.0989   24.2054 C   0  0  0  0  0  0
    8.8991   -1.0353   20.4090 C   0  0  0  0  0  0
    8.1754   -2.6432   17.4103 C   0  0  0  0  0  0
    4.1135    0.4701   25.2612 Cl  0  0  0  0  0  0
    7.9387   -1.8722   24.9836 C   0  0  0  0  0  0
    7.7005   -0.8453   24.0813 C   0  0  0  0  0  0
    8.5814   -0.6540   22.8707 C   0  0  0  0  0  0
    7.9357   -1.1780   21.5817 C   0  0  2  0  0  0
    7.5563   -2.5501   21.7629 O   0  0  0  0  0  0
    8.3326   -1.5359   19.1587 N   0  0  0  0  0  0
    9.0254   -2.4085   18.3854 N   0  0  0  0  0  0
    7.1445   -1.3025   18.6085 C   0  0  0  0  0  0
    7.2003   -3.0002   26.6444 H   0  0  0  0  0  0
    5.0734   -1.7570   26.7797 H   0  0  0  0  0  0
    6.3521    0.7444   23.5550 H   0  0  0  0  0  0
    9.8211   -1.5730   20.6301 H   0  0  0  0  0  0
    9.1714    0.0134   20.2893 H   0  0  0  0  0  0
    8.3661   -3.3029   16.5768 H   0  0  0  0  0  0
    8.8659   -2.4230   24.9249 H   0  0  0  0  0  0
    9.5329   -1.1609   23.0313 H   0  0  0  0  0  0
    8.8133    0.4048   22.7552 H   0  0  0  0  0  0
    7.0409   -0.5912   21.3740 H   0  0  0  0  0  0
    6.9505   -2.6198   22.5044 H   0  0  0  0  0  0
    6.3514   -0.6551   18.9524 H   0  0  0  0  0  0
  1  7  1  0  0  0
  1 16  2  0  0  0
  2  3  1  0  0  0
  2  9  2  0  0  0
  2 17  1  0  0  0
  3  4  2  0  0  0
  3 18  1  0  0  0
  4  5  1  0  0  0
  4  8  1  0  0  0
  5 10  2  0  0  0
  5 19  1  0  0  0
  6 12  1  0  0  0
  6 14  1  0  0  0
  6 20  1  0  0  0
  6 21  1  0  0  0
  7 15  2  0  0  0
  7 22  1  0  0  0
  9 10  1  0  0  0
  9 23  1  0  0  0
 10 11  1  0  0  0
 11 12  1  0  0  0
 11 24  1  0  0  0
 11 25  1  0  0  0
 12 13  1  0  0  0
 12 26  1  0  0  0
 13 27  1  0  0  0
 14 15  1  0  0  0
 14 16  1  0  0  0
 16 28  1  0  0  0
M  END
> <s_m_entry_id>
381

> <s_m_entry_name>
7ged.pdb.1_ligand

> <s_pdb_PDB_TITLE>
GROUP DEPOSITION SARS-COV-2 MAIN PROTEASE IN COMPLEX WITH INHIBITORS FROM THE COVID MOONSHOT -- CRYSTAL STRUCTURE OF SARS-COV-2 MAIN PROTEASE IN COMPLEX WITH JAG-UCB-CEDD89AB-2 (MPRO-X11426)

> <s_pdb_PDB_ID>
7GED

> <s_m_Source_File>
7ged.pdb.gz

> <s_user_Compound_ID>
JAG-UCB-cedd89ab-2

> <s_user_Monomer-Dimer>
Monomer

> <s_user_xcode>
Mpro-x11426

$$$$
