7GEE_ligand
                    3D
 Schrodinger Suite 2021-2.
 34 35  0  0  1  0            999 V2000
    8.4057   -0.8837   20.8536 N   0  0  0  0  0  0
    7.1009   -1.5030   18.8612 C   0  0  0  0  0  0
    8.2966   -1.5279   19.5842 C   0  0  0  0  0  0
    7.7738   -1.2903   21.9845 C   0  0  0  0  0  0
    7.8020   -0.2924   23.1252 C   0  0  0  0  0  0
    7.3292   -0.9138   24.4597 C   0  0  0  0  0  0
    6.2214   -0.2196   26.6115 C   0  0  0  0  0  0
    8.0141    1.7984   27.0120 C   0  0  0  0  0  0
    8.8954    2.8318   27.1892 F   0  0  0  0  0  0
    7.0843    1.5638   27.9873 C   0  0  0  0  0  0
    6.1710    0.5444   27.7715 C   0  0  0  0  0  0
    8.0952    1.0560   25.8456 C   0  0  0  0  0  0
    7.1921    0.0125   25.6449 C   0  0  0  0  0  0
    7.1978   -2.3745   22.0861 O   0  0  0  0  0  0
    9.3895   -2.2470   19.0427 C   0  0  0  0  0  0
   10.6982   -2.3882   19.7763 C   0  0  0  0  0  0
    6.9283   -2.1184   17.6865 N   0  0  0  0  0  0
    7.9785   -2.7786   17.1815 C   0  0  0  0  0  0
    9.2017   -2.8707   17.8156 C   0  0  0  0  0  0
    8.9861   -0.0634   20.9553 H   0  0  0  0  0  0
    6.2480   -0.9641   19.2465 H   0  0  0  0  0  0
    7.1686    0.5593   22.8774 H   0  0  0  0  0  0
    8.8144    0.0939   23.2438 H   0  0  0  0  0  0
    7.9904   -1.7388   24.7247 H   0  0  0  0  0  0
    6.3835   -1.4313   24.2985 H   0  0  0  0  0  0
    5.4994   -1.0068   26.4515 H   0  0  0  0  0  0
    7.0806    2.1638   28.8853 H   0  0  0  0  0  0
    5.4143    0.3461   28.5162 H   0  0  0  0  0  0
    8.8495    1.2889   25.1086 H   0  0  0  0  0  0
   11.3904   -2.9780   19.1754 H   0  0  0  0  0  0
   11.1235   -1.4006   19.9551 H   0  0  0  0  0  0
   10.5286   -2.8882   20.7299 H   0  0  0  0  0  0
    7.8949   -3.2768   16.2269 H   0  0  0  0  0  0
   10.0103   -3.4246   17.3620 H   0  0  0  0  0  0
  1  3  1  0  0  0
  1  4  1  0  0  0
  1 20  1  0  0  0
  2  3  1  0  0  0
  2 17  2  0  0  0
  2 21  1  0  0  0
  3 15  2  0  0  0
  4  5  1  0  0  0
  4 14  2  0  0  0
  5  6  1  0  0  0
  5 22  1  0  0  0
  5 23  1  0  0  0
  6 13  1  0  0  0
  6 24  1  0  0  0
  6 25  1  0  0  0
  7 11  1  0  0  0
  7 13  2  0  0  0
  7 26  1  0  0  0
  8  9  1  0  0  0
  8 10  1  0  0  0
  8 12  2  0  0  0
 10 11  2  0  0  0
 10 27  1  0  0  0
 11 28  1  0  0  0
 12 13  1  0  0  0
 12 29  1  0  0  0
 15 16  1  0  0  0
 15 19  1  0  0  0
 16 30  1  0  0  0
 16 31  1  0  0  0
 16 32  1  0  0  0
 17 18  1  0  0  0
 18 19  2  0  0  0
 18 33  1  0  0  0
 19 34  1  0  0  0
M  END
> <s_m_entry_id>
383

> <s_m_entry_name>
7gee.pdb.1_ligand

> <s_pdb_PDB_TITLE>
GROUP DEPOSITION SARS-COV-2 MAIN PROTEASE IN COMPLEX WITH INHIBITORS FROM THE COVID MOONSHOT -- CRYSTAL STRUCTURE OF SARS-COV-2 MAIN PROTEASE IN COMPLEX WITH BEN-DND-93268D01-5 (MPRO-X11427)

> <s_pdb_PDB_ID>
7GEE

> <s_m_Source_File>
7gee.pdb.gz

> <s_user_Compound_ID>
BEN-DND-93268d01-5

> <s_user_Monomer-Dimer>
Monomer

> <s_user_xcode>
Mpro-x11427

$$$$
