7GEF_ligand
                    3D
 Schrodinger Suite 2021-2.
 37 38  0  0  1  0            999 V2000
    8.8048   -1.0845   20.8389 N   0  0  0  0  0  0
    7.2775   -1.5278   18.9753 C   0  0  0  0  0  0
    8.5427   -1.6428   19.5618 C   0  0  0  0  0  0
    8.0701   -1.3222   21.9469 C   0  0  0  0  0  0
    8.5942   -0.6670   23.2112 C   0  0  0  0  0  0
    6.5423    0.0785   24.2254 C   0  0  0  0  0  0
    6.1642   -0.0891   26.6906 C   0  0  0  0  0  0
    7.0888   -2.0598   21.9787 O   0  0  0  0  0  0
    6.9684   -2.0614   17.7881 N   0  0  0  0  0  0
    7.9402   -2.7258   17.1424 C   0  0  0  0  0  0
    9.2204   -2.8912   17.6412 C   0  0  0  0  0  0
    9.5489   -2.3551   18.8794 C   0  0  0  0  0  0
   10.9212   -2.5713   19.4700 C   0  0  0  0  0  0
    7.6648   -0.8704   24.3189 N   0  3  0  0  0  0
    8.3387   -0.7146   25.6214 C   0  0  0  0  0  0
    7.3878   -0.9782   26.7742 C   0  0  0  0  0  0
    5.5233   -0.1743   25.3104 C   0  0  0  0  0  0
    9.5885   -0.4602   20.9660 H   0  0  0  0  0  0
    6.4935   -0.9870   19.4844 H   0  0  0  0  0  0
    8.7253    0.4013   23.0389 H   0  0  0  0  0  0
    9.5633   -1.0954   23.4672 H   0  0  0  0  0  0
    6.0654   -0.0186   23.2501 H   0  0  0  0  0  0
    6.9201    1.0972   24.3126 H   0  0  0  0  0  0
    6.4506    0.9426   26.8947 H   0  0  0  0  0  0
    5.4407   -0.3954   27.4462 H   0  0  0  0  0  0
    7.7427   -3.1677   16.1769 H   0  0  0  0  0  0
    9.9572   -3.4345   17.0682 H   0  0  0  0  0  0
   11.5315   -3.1444   18.7720 H   0  0  0  0  0  0
   11.3930   -1.6067   19.6570 H   0  0  0  0  0  0
   10.8314   -3.1193   20.4080 H   0  0  0  0  0  0
    7.2964   -1.8090   24.2594 H   0  0  0  0  0  0
    8.7381    0.2962   25.7046 H   0  0  0  0  0  0
    9.1797   -1.4056   25.6796 H   0  0  0  0  0  0
    7.0786   -2.0234   26.7577 H   0  0  0  0  0  0
    7.9029   -0.7987   27.7178 H   0  0  0  0  0  0
    5.0856   -1.1631   25.1739 H   0  0  0  0  0  0
    4.7233    0.5623   25.2356 H   0  0  0  0  0  0
  1  3  1  0  0  0
  1  4  1  0  0  0
  1 18  1  0  0  0
  2  3  1  0  0  0
  2  9  2  0  0  0
  2 19  1  0  0  0
  3 12  2  0  0  0
  4  5  1  0  0  0
  4  8  2  0  0  0
  5 14  1  0  0  0
  5 20  1  0  0  0
  5 21  1  0  0  0
  6 14  1  0  0  0
  6 17  1  0  0  0
  6 22  1  0  0  0
  6 23  1  0  0  0
  7 16  1  0  0  0
  7 17  1  0  0  0
  7 24  1  0  0  0
  7 25  1  0  0  0
  9 10  1  0  0  0
 10 11  2  0  0  0
 10 26  1  0  0  0
 11 12  1  0  0  0
 11 27  1  0  0  0
 12 13  1  0  0  0
 13 28  1  0  0  0
 13 29  1  0  0  0
 13 30  1  0  0  0
 14 15  1  0  0  0
 14 31  1  0  0  0
 15 16  1  0  0  0
 15 32  1  0  0  0
 15 33  1  0  0  0
 16 34  1  0  0  0
 16 35  1  0  0  0
 17 36  1  0  0  0
 17 37  1  0  0  0
M  CHG  1  14   1
M  END
> <s_m_entry_id>
385

> <s_m_entry_name>
7gef.pdb.1_ligand

> <s_pdb_PDB_TITLE>
GROUP DEPOSITION SARS-COV-2 MAIN PROTEASE IN COMPLEX WITH INHIBITORS FROM THE COVID MOONSHOT -- CRYSTAL STRUCTURE OF SARS-COV-2 MAIN PROTEASE IN COMPLEX WITH BEN-DND-93268D01-11 (MPRO-X11428)

> <s_pdb_PDB_ID>
7GEF

> <s_m_Source_File>
7gef.pdb.gz

> <s_user_Compound_ID>
BEN-DND-93268d01-11

> <s_user_Monomer-Dimer>
Monomer

> <s_user_xcode>
Mpro-x11428

$$$$
