7GEG_ligand
                    3D
 Schrodinger Suite 2021-2.
 38 40  0  0  1  0            999 V2000
    6.9876   -1.9605   17.4048 N   0  0  0  0  0  0
    7.6427   -0.6107   24.1119 C   0  0  0  0  0  0
    8.5193   -0.3682   22.9032 C   0  0  0  0  0  0
    8.0724   -1.1736   21.6973 C   0  0  0  0  0  0
    8.3466   -1.3479   19.2759 C   0  0  0  0  0  0
    7.1810   -1.2594   18.5244 C   0  0  0  0  0  0
    9.1611   -2.9490   17.6732 C   0  0  0  0  0  0
   11.5663   -3.4506   19.1950 C   0  0  0  0  0  0
    9.3747   -2.1987   18.8373 C   0  0  0  0  0  0
    7.4794   -2.2407   21.8155 O   0  0  0  0  0  0
    8.0320   -1.4891   25.1140 C   0  0  0  0  0  0
    7.1599   -1.8334   26.1349 C   0  0  0  0  0  0
    5.8840   -1.2941   26.1761 C   0  0  0  0  0  0
    6.3795   -0.0342   24.1812 C   0  0  0  0  0  0
    5.5200   -0.3887   25.2011 C   0  0  0  0  0  0
    3.9199    0.2989   25.2299 Cl  0  0  0  0  0  0
    8.4263   -0.6526   20.5024 N   0  0  0  0  0  0
   10.6833   -2.2736   19.5940 C   0  0  0  0  0  0
   11.5648   -3.6732   17.6949 C   0  0  0  0  0  0
   10.1650   -3.9768   17.2105 C   0  0  0  0  0  0
    7.9679   -2.7774   17.0067 C   0  0  0  0  0  0
    9.5509   -0.6224   23.1468 H   0  0  0  0  0  0
    8.5084    0.6930   22.6546 H   0  0  0  0  0  0
    6.4133   -0.5887   18.8810 H   0  0  0  0  0  0
   11.2159   -4.3530   19.6958 H   0  0  0  0  0  0
   12.5865   -3.2698   19.5337 H   0  0  0  0  0  0
    9.0252   -1.9133   25.1044 H   0  0  0  0  0  0
    7.4737   -2.5249   26.9029 H   0  0  0  0  0  0
    5.1999   -1.5847   26.9596 H   0  0  0  0  0  0
    6.0740    0.6882   23.4387 H   0  0  0  0  0  0
    8.7746    0.2938   20.4473 H   0  0  0  0  0  0
   11.2352   -1.3441   19.4542 H   0  0  0  0  0  0
   10.4798   -2.3209   20.6638 H   0  0  0  0  0  0
   12.2223   -4.5076   17.4510 H   0  0  0  0  0  0
   11.9359   -2.7786   17.1947 H   0  0  0  0  0  0
   10.1605   -4.0232   16.1215 H   0  0  0  0  0  0
    9.8645   -4.9625   17.5657 H   0  0  0  0  0  0
    7.8525   -3.3597   16.1045 H   0  0  0  0  0  0
  1  6  1  0  0  0
  1 21  2  0  0  0
  2  3  1  0  0  0
  2 11  1  0  0  0
  2 14  2  0  0  0
  3  4  1  0  0  0
  3 22  1  0  0  0
  3 23  1  0  0  0
  4 10  2  0  0  0
  4 17  1  0  0  0
  5  6  2  0  0  0
  5  9  1  0  0  0
  5 17  1  0  0  0
  6 24  1  0  0  0
  7  9  2  0  0  0
  7 20  1  0  0  0
  7 21  1  0  0  0
  8 18  1  0  0  0
  8 19  1  0  0  0
  8 25  1  0  0  0
  8 26  1  0  0  0
  9 18  1  0  0  0
 11 12  2  0  0  0
 11 27  1  0  0  0
 12 13  1  0  0  0
 12 28  1  0  0  0
 13 15  2  0  0  0
 13 29  1  0  0  0
 14 15  1  0  0  0
 14 30  1  0  0  0
 15 16  1  0  0  0
 17 31  1  0  0  0
 18 32  1  0  0  0
 18 33  1  0  0  0
 19 20  1  0  0  0
 19 34  1  0  0  0
 19 35  1  0  0  0
 20 36  1  0  0  0
 20 37  1  0  0  0
 21 38  1  0  0  0
M  END
> <s_m_entry_id>
387

> <s_m_entry_name>
7geg.pdb.1_ligand

> <s_pdb_PDB_TITLE>
GROUP DEPOSITION SARS-COV-2 MAIN PROTEASE IN COMPLEX WITH INHIBITORS FROM THE COVID MOONSHOT -- CRYSTAL STRUCTURE OF SARS-COV-2 MAIN PROTEASE IN COMPLEX WITH EDJ-MED-A364E151-1 (MPRO-X11431)

> <s_pdb_PDB_ID>
7GEG

> <s_m_Source_File>
7geg.pdb.gz

> <s_user_Compound_ID>
EDJ-MED-a364e151-1

> <s_user_Monomer-Dimer>
Monomer

> <s_user_xcode>
Mpro-x11431

$$$$
