7GEH_ligand
                    3D
 Schrodinger Suite 2021-2.
 37 39  0  0  1  0            999 V2000
    7.9964   -1.2656   19.7586 N   0  0  0  0  0  0
    6.9032   -1.8267   17.9781 N   0  0  0  0  0  0
    4.9584    0.4900   25.6214 C   0  0  0  0  0  0
    5.4296    1.0535   26.8020 C   0  0  0  0  0  0
    6.6643    0.6582   27.2802 C   0  0  0  0  0  0
    7.4305   -0.2842   26.6187 C   0  0  0  0  0  0
    7.9817   -1.5288   22.2001 C   0  0  0  0  0  0
    8.1726   -2.3474   17.8823 C   0  0  0  0  0  0
   10.7403   -3.2956   18.3087 C   0  0  0  0  0  0
    8.8843   -1.9939   19.0239 C   0  0  0  0  0  0
    7.5057   -2.6438   22.0277 O   0  0  0  0  0  0
    8.1896   -0.5842   21.0206 C   0  0  0  0  0  0
   10.1764   -2.4504   19.2564 C   0  0  0  0  0  0
   10.0370   -3.6533   17.1587 C   0  0  0  0  0  0
    8.7536   -3.1808   16.9289 C   0  0  0  0  0  0
    6.8085   -1.1867   19.1079 N   0  0  0  0  0  0
    8.3620   -1.0969   23.4236 N   0  0  0  0  0  0
    9.2323    0.0527   23.6725 C   0  0  0  0  0  0
    7.8495   -1.7580   24.6182 C   0  0  0  0  0  0
    6.9695   -0.8329   25.4225 C   0  0  0  0  0  0
    7.2954    1.3890   28.7397 Cl  0  0  0  0  0  0
    5.7256   -0.4436   24.9393 C   0  0  0  0  0  0
    3.9929    0.7787   25.2329 H   0  0  0  0  0  0
    4.8333    1.7852   27.3267 H   0  0  0  0  0  0
    8.3810   -0.5918   27.0289 H   0  0  0  0  0  0
   11.7366   -3.6852   18.4572 H   0  0  0  0  0  0
    7.4894    0.2479   21.0944 H   0  0  0  0  0  0
    9.1977   -0.1716   21.0595 H   0  0  0  0  0  0
   10.7398   -2.1713   20.1345 H   0  0  0  0  0  0
   10.4911   -4.3082   16.4298 H   0  0  0  0  0  0
    8.2057   -3.4446   16.0364 H   0  0  0  0  0  0
    9.3747    0.1755   24.7461 H   0  0  0  0  0  0
   10.1981   -0.1120   23.1949 H   0  0  0  0  0  0
    8.7733    0.9521   23.2621 H   0  0  0  0  0  0
    8.6843   -2.0916   25.2346 H   0  0  0  0  0  0
    7.2790   -2.6403   24.3281 H   0  0  0  0  0  0
    5.3580   -0.8773   24.0210 H   0  0  0  0  0  0
  1 10  1  0  0  0
  1 12  1  0  0  0
  1 16  1  0  0  0
  2  8  1  0  0  0
  2 16  2  0  0  0
  3  4  1  0  0  0
  3 22  2  0  0  0
  3 23  1  0  0  0
  4  5  2  0  0  0
  4 24  1  0  0  0
  5  6  1  0  0  0
  5 21  1  0  0  0
  6 20  2  0  0  0
  6 25  1  0  0  0
  7 11  2  0  0  0
  7 12  1  0  0  0
  7 17  1  0  0  0
  8 10  2  0  0  0
  8 15  1  0  0  0
  9 13  2  0  0  0
  9 14  1  0  0  0
  9 26  1  0  0  0
 10 13  1  0  0  0
 12 27  1  0  0  0
 12 28  1  0  0  0
 13 29  1  0  0  0
 14 15  2  0  0  0
 14 30  1  0  0  0
 15 31  1  0  0  0
 17 18  1  0  0  0
 17 19  1  0  0  0
 18 32  1  0  0  0
 18 33  1  0  0  0
 18 34  1  0  0  0
 19 20  1  0  0  0
 19 35  1  0  0  0
 19 36  1  0  0  0
 20 22  1  0  0  0
 22 37  1  0  0  0
M  END
> <s_m_entry_id>
389

> <s_m_entry_name>
7geh.pdb.1_ligand

> <s_pdb_PDB_TITLE>
GROUP DEPOSITION SARS-COV-2 MAIN PROTEASE IN COMPLEX WITH INHIBITORS FROM THE COVID MOONSHOT -- CRYSTAL STRUCTURE OF SARS-COV-2 MAIN PROTEASE IN COMPLEX WITH EDJ-MED-06D94977-2 (MPRO-X11432)

> <s_pdb_PDB_ID>
7GEH

> <s_m_Source_File>
7geh.pdb.gz

> <s_user_Compound_ID>
EDJ-MED-06d94977-2

> <s_user_Monomer-Dimer>
Monomer

> <s_user_xcode>
Mpro-x11432

$$$$
