7GEI_ligand
                    3D
 Schrodinger Suite 2021-2.
 32 34  0  0  1  0            999 V2000
    6.9519   -1.7556   17.6429 N   0  0  0  0  0  0
    7.6674   -0.8210   24.3339 C   0  0  0  0  0  0
    8.6414   -0.6045   23.1988 C   0  0  0  0  0  0
    8.1832   -1.3282   21.9473 C   0  0  0  0  0  0
    7.9797   -1.1397   19.5444 C   0  0  0  0  0  0
    6.8820   -0.9815   18.7653 C   0  0  0  0  0  0
    8.7383   -3.3191   16.8589 C   0  0  0  0  0  0
   10.0328   -2.5612   19.2166 C   0  0  0  0  0  0
    7.6927   -2.4534   21.9818 O   0  0  0  0  0  0
    7.8970   -1.8011   25.2905 C   0  0  0  0  0  0
    6.9113   -2.1501   26.2013 C   0  0  0  0  0  0
    5.6857   -1.5015   26.1862 C   0  0  0  0  0  0
    6.4536   -0.1422   24.3477 C   0  0  0  0  0  0
    5.4861   -0.4893   25.2702 C   0  0  0  0  0  0
    3.9758    0.3782   25.2744 Cl  0  0  0  0  0  0
    8.3278   -0.6221   20.7885 N   0  0  0  0  0  0
    8.7938   -2.0383   18.8944 N   0  0  0  0  0  0
    8.1203   -2.3928   17.7296 C   0  0  0  0  0  0
   10.6174   -3.4459   18.3794 C   0  0  0  0  0  0
    9.9597   -3.8339   17.1842 C   0  0  0  0  0  0
    9.6256   -0.9712   23.4903 H   0  0  0  0  0  0
    8.7253    0.4622   22.9911 H   0  0  0  0  0  0
    6.0219   -0.3503   18.9332 H   0  0  0  0  0  0
    8.2441   -3.6139   15.9451 H   0  0  0  0  0  0
   10.5243   -2.2618   20.1305 H   0  0  0  0  0  0
    8.8528   -2.3021   25.3316 H   0  0  0  0  0  0
    7.0969   -2.9294   26.9256 H   0  0  0  0  0  0
    4.9124   -1.7921   26.8819 H   0  0  0  0  0  0
    6.2710    0.6522   23.6392 H   0  0  0  0  0  0
    8.7007    0.3162   20.8121 H   0  0  0  0  0  0
   11.5861   -3.8581   18.6201 H   0  0  0  0  0  0
   10.4377   -4.5462   16.5281 H   0  0  0  0  0  0
  1  6  1  0  0  0
  1 18  2  0  0  0
  2  3  1  0  0  0
  2 10  1  0  0  0
  2 13  2  0  0  0
  3  4  1  0  0  0
  3 21  1  0  0  0
  3 22  1  0  0  0
  4  9  2  0  0  0
  4 16  1  0  0  0
  5  6  2  0  0  0
  5 16  1  0  0  0
  5 17  1  0  0  0
  6 23  1  0  0  0
  7 18  1  0  0  0
  7 20  2  0  0  0
  7 24  1  0  0  0
  8 17  1  0  0  0
  8 19  2  0  0  0
  8 25  1  0  0  0
 10 11  2  0  0  0
 10 26  1  0  0  0
 11 12  1  0  0  0
 11 27  1  0  0  0
 12 14  2  0  0  0
 12 28  1  0  0  0
 13 14  1  0  0  0
 13 29  1  0  0  0
 14 15  1  0  0  0
 16 30  1  0  0  0
 17 18  1  0  0  0
 19 20  1  0  0  0
 19 31  1  0  0  0
 20 32  1  0  0  0
M  END
> <s_m_entry_id>
391

> <s_m_entry_name>
7gei.pdb.1_ligand

> <s_pdb_PDB_TITLE>
GROUP DEPOSITION SARS-COV-2 MAIN PROTEASE IN COMPLEX WITH INHIBITORS FROM THE COVID MOONSHOT -- CRYSTAL STRUCTURE OF SARS-COV-2 MAIN PROTEASE IN COMPLEX WITH PET-UNK-8DF914D1-2 (MPRO-X11454)

> <s_pdb_PDB_ID>
7GEI

> <s_m_Source_File>
7gei.pdb.gz

> <s_user_Compound_ID>
PET-UNK-8df914d1-2 

> <s_user_Monomer-Dimer>
Monomer

> <s_user_xcode>
Mpro-x11454

$$$$
