7GEJ_ligand
                    3D
 Schrodinger Suite 2021-2.
 36 38  0  0  1  0            999 V2000
    6.9655   -2.0189   17.3148 N   0  0  0  0  0  0
    7.7187   -1.4793   26.1265 C   0  0  0  0  0  0
    6.3649   -1.2815   26.1606 C   0  0  0  0  0  0
    5.7104   -0.5237   25.1264 C   0  0  0  0  0  0
    4.3710   -0.2795   25.1228 C   0  0  0  0  0  0
    3.2056   -0.0615   25.1018 C   0  0  0  0  0  0
    8.2880   -1.3246   19.2210 C   0  0  0  0  0  0
    9.2203   -2.8602   17.5666 C   0  0  0  0  0  0
   11.4395   -3.7720   17.8264 C   0  0  0  0  0  0
   10.6120   -2.2398   19.4652 C   0  0  0  0  0  0
    7.6576   -2.0844   21.9532 O   0  0  0  0  0  0
    8.1881   -1.0111   21.6764 C   0  0  0  0  0  0
    8.4355   -0.5984   20.4170 N   0  0  0  0  0  0
    9.3826   -2.1211   18.7690 C   0  0  0  0  0  0
   11.6070   -3.0503   18.9972 C   0  0  0  0  0  0
   10.2792   -3.6863   17.1172 C   0  0  0  0  0  0
    7.9820   -2.7532   16.8916 C   0  0  0  0  0  0
    7.1295   -1.3325   18.4512 C   0  0  0  0  0  0
    8.6542   -0.0667   22.7634 C   0  0  0  0  0  0
    7.8497   -0.2967   24.0163 C   0  0  0  0  0  0
    6.5204   -0.0370   24.0685 C   0  0  0  0  0  0
    8.4730   -0.9859   25.0657 C   0  0  0  0  0  0
    8.2058   -2.0200   26.9245 H   0  0  0  0  0  0
    5.7789   -1.6953   26.9679 H   0  0  0  0  0  0
    2.1677    0.1327   25.0832 H   0  0  0  0  0  0
   12.2331   -4.4105   17.4674 H   0  0  0  0  0  0
   10.7713   -1.6852   20.3782 H   0  0  0  0  0  0
    8.7641    0.3563   20.3909 H   0  0  0  0  0  0
   12.5317   -3.1251   19.5501 H   0  0  0  0  0  0
   10.1708   -4.2550   16.2055 H   0  0  0  0  0  0
    7.8947   -3.3198   15.9763 H   0  0  0  0  0  0
    6.3240   -0.7244   18.8358 H   0  0  0  0  0  0
    8.5222    0.9629   22.4310 H   0  0  0  0  0  0
    9.7092   -0.2451   22.9715 H   0  0  0  0  0  0
    6.0803    0.5555   23.2801 H   0  0  0  0  0  0
    9.5427   -1.1335   25.0492 H   0  0  0  0  0  0
  1 17  2  0  0  0
  1 18  1  0  0  0
  2  3  1  0  0  0
  2 22  2  0  0  0
  2 23  1  0  0  0
  3  4  2  0  0  0
  3 24  1  0  0  0
  4  5  1  0  0  0
  4 21  1  0  0  0
  5  6  3  0  0  0
  6 25  1  0  0  0
  7 13  1  0  0  0
  7 14  1  0  0  0
  7 18  2  0  0  0
  8 14  1  0  0  0
  8 16  2  0  0  0
  8 17  1  0  0  0
  9 15  2  0  0  0
  9 16  1  0  0  0
  9 26  1  0  0  0
 10 14  2  0  0  0
 10 15  1  0  0  0
 10 27  1  0  0  0
 11 12  2  0  0  0
 12 13  1  0  0  0
 12 19  1  0  0  0
 13 28  1  0  0  0
 15 29  1  0  0  0
 16 30  1  0  0  0
 17 31  1  0  0  0
 18 32  1  0  0  0
 19 20  1  0  0  0
 19 33  1  0  0  0
 19 34  1  0  0  0
 20 21  2  0  0  0
 20 22  1  0  0  0
 21 35  1  0  0  0
 22 36  1  0  0  0
M  END
> <s_m_entry_id>
393

> <s_m_entry_name>
7gej.pdb.1_ligand

> <s_pdb_PDB_TITLE>
GROUP DEPOSITION SARS-COV-2 MAIN PROTEASE IN COMPLEX WITH INHIBITORS FROM THE COVID MOONSHOT -- CRYSTAL STRUCTURE OF SARS-COV-2 MAIN PROTEASE IN COMPLEX WITH PET-UNK-C9C1E0D8-2 (MPRO-X11458)

> <s_pdb_PDB_ID>
7GEJ

> <s_m_Source_File>
7gej.pdb.gz

> <s_user_Compound_ID>
PET-UNK-c9c1e0d8-2

> <s_user_Monomer-Dimer>
Monomer

> <s_user_xcode>
Mpro-x11458

$$$$
