7GEK_ligand
                    3D
 Schrodinger Suite 2021-2.
 29 30  0  0  1  0            999 V2000
    6.8819   -2.0553   17.3366 N   0  0  0  0  0  0
    8.2245   -1.5004   21.5604 C   0  0  0  0  0  0
    8.7626   -0.7067   22.7350 C   0  0  0  0  0  0
    7.8567   -0.8896   23.9323 C   0  0  0  0  0  0
    8.1506   -1.8349   24.9044 C   0  0  0  0  0  0
    7.2558   -2.1049   25.9290 C   0  0  0  0  0  0
    5.7759   -0.4699   25.0503 C   0  0  0  0  0  0
    4.2873    0.4288   25.1578 Cl  0  0  0  0  0  0
    6.0507   -1.4282   26.0003 C   0  0  0  0  0  0
    6.6567   -0.1887   24.0212 C   0  0  0  0  0  0
    7.5443   -2.5125   21.7155 O   0  0  0  0  0  0
    8.5784   -1.0231   20.3285 N   0  0  0  0  0  0
    8.1175   -1.5818   19.1357 C   0  0  0  0  0  0
    8.7674   -2.5587   18.4061 N   0  0  0  0  0  0
    9.9826   -3.2895   18.7633 C   0  0  0  0  0  0
    6.9667   -1.2916   18.4783 C   0  0  0  0  0  0
    7.9780   -2.7859   17.3296 C   0  0  0  0  0  0
    8.8056    0.3497   22.4702 H   0  0  0  0  0  0
    9.7649   -1.0571   22.9812 H   0  0  0  0  0  0
    9.0868   -2.3721   24.8697 H   0  0  0  0  0  0
    7.4980   -2.8463   26.6760 H   0  0  0  0  0  0
    5.3493   -1.6562   26.7893 H   0  0  0  0  0  0
    6.4184    0.5690   23.2894 H   0  0  0  0  0  0
    9.2005   -0.2311   20.2534 H   0  0  0  0  0  0
   10.2317   -3.9921   17.9681 H   0  0  0  0  0  0
   10.8044   -2.5859   18.8965 H   0  0  0  0  0  0
    9.8187   -3.8359   19.6921 H   0  0  0  0  0  0
    6.1784   -0.5946   18.7216 H   0  0  0  0  0  0
    8.1631   -3.4739   16.5179 H   0  0  0  0  0  0
  1 16  1  0  0  0
  1 17  2  0  0  0
  2  3  1  0  0  0
  2 11  2  0  0  0
  2 12  1  0  0  0
  3  4  1  0  0  0
  3 18  1  0  0  0
  3 19  1  0  0  0
  4  5  1  0  0  0
  4 10  2  0  0  0
  5  6  2  0  0  0
  5 20  1  0  0  0
  6  9  1  0  0  0
  6 21  1  0  0  0
  7  8  1  0  0  0
  7  9  2  0  0  0
  7 10  1  0  0  0
  9 22  1  0  0  0
 10 23  1  0  0  0
 12 13  1  0  0  0
 12 24  1  0  0  0
 13 14  1  0  0  0
 13 16  2  0  0  0
 14 15  1  0  0  0
 14 17  1  0  0  0
 15 25  1  0  0  0
 15 26  1  0  0  0
 15 27  1  0  0  0
 16 28  1  0  0  0
 17 29  1  0  0  0
M  END
> <s_m_entry_id>
395

> <s_m_entry_name>
7gek.pdb.1_ligand

> <s_pdb_PDB_TITLE>
GROUP DEPOSITION SARS-COV-2 MAIN PROTEASE IN COMPLEX WITH INHIBITORS FROM THE COVID MOONSHOT -- CRYSTAL STRUCTURE OF SARS-COV-2 MAIN PROTEASE IN COMPLEX WITH PET-UNK-8DF914D1-4 (MPRO-X11473)

> <s_pdb_PDB_ID>
7GEK

> <s_m_Source_File>
7gek.pdb.gz

> <s_user_Compound_ID>
PET-UNK-8df914d1-4

> <s_user_Monomer-Dimer>
Monomer

> <s_user_xcode>
Mpro-x11473

$$$$
