7GEL_ligand
                    3D
 Schrodinger Suite 2021-2.
 34 36  0  0  1  0            999 V2000
    8.4854   -1.0362   20.9066 N   0  0  0  0  0  0
    7.2601   -1.4703   18.8653 C   0  0  0  0  0  0
    8.4536   -1.5699   19.5750 C   0  0  0  0  0  0
    9.2044    0.1969   21.2624 C   0  0  0  0  0  0
    8.8058    0.4446   22.7031 C   0  0  0  0  0  0
    7.7790   -1.5624   21.9672 C   0  0  0  0  0  0
    7.1625   -2.1738   24.7960 C   0  0  0  0  0  0
    6.1316   -0.0290   26.1807 C   0  0  0  0  0  0
    5.5866    1.3242   27.1299 Cl  0  0  0  0  0  0
    5.8720   -1.3063   26.6269 C   0  0  0  0  0  0
    6.4016   -2.3804   25.9325 C   0  0  0  0  0  0
    6.8408    0.2099   25.0179 C   0  0  0  0  0  0
    7.3575   -0.8781   24.3165 C   0  0  0  0  0  0
    7.9454   -0.7012   23.0304 N   0  0  0  0  0  0
    7.1482   -2.5984   21.9720 O   0  0  0  0  0  0
    9.5090   -2.2993   19.0255 C   0  0  0  0  0  0
   10.8276   -2.4724   19.7371 C   0  0  0  0  0  0
    7.0554   -2.0484   17.6785 N   0  0  0  0  0  0
    8.0720   -2.7460   17.1573 C   0  0  0  0  0  0
    9.2947   -2.8929   17.7850 C   0  0  0  0  0  0
    6.4366   -0.9012   19.2708 H   0  0  0  0  0  0
    8.8423    1.0168   20.6422 H   0  0  0  0  0  0
   10.2780    0.0155   21.2116 H   0  0  0  0  0  0
    8.2212    1.3627   22.7625 H   0  0  0  0  0  0
    9.6952    0.4188   23.3326 H   0  0  0  0  0  0
    7.6042   -3.0145   24.2816 H   0  0  0  0  0  0
    5.2634   -1.4580   27.5061 H   0  0  0  0  0  0
    6.2172   -3.3850   26.2837 H   0  0  0  0  0  0
    6.9841    1.2227   24.6713 H   0  0  0  0  0  0
   11.4963   -3.0752   19.1226 H   0  0  0  0  0  0
   11.2777   -1.4952   19.9120 H   0  0  0  0  0  0
   10.6630   -2.9721   20.6917 H   0  0  0  0  0  0
    7.9594   -3.2297   16.1982 H   0  0  0  0  0  0
   10.0819   -3.4654   17.3171 H   0  0  0  0  0  0
  1  3  1  0  0  0
  1  4  1  0  0  0
  1  6  1  0  0  0
  2  3  1  0  0  0
  2 18  2  0  0  0
  2 21  1  0  0  0
  3 16  2  0  0  0
  4  5  1  0  0  0
  4 22  1  0  0  0
  4 23  1  0  0  0
  5 14  1  0  0  0
  5 24  1  0  0  0
  5 25  1  0  0  0
  6 14  1  0  0  0
  6 15  2  0  0  0
  7 11  1  0  0  0
  7 13  2  0  0  0
  7 26  1  0  0  0
  8  9  1  0  0  0
  8 10  1  0  0  0
  8 12  2  0  0  0
 10 11  2  0  0  0
 10 27  1  0  0  0
 11 28  1  0  0  0
 12 13  1  0  0  0
 12 29  1  0  0  0
 13 14  1  0  0  0
 16 17  1  0  0  0
 16 20  1  0  0  0
 17 30  1  0  0  0
 17 31  1  0  0  0
 17 32  1  0  0  0
 18 19  1  0  0  0
 19 20  2  0  0  0
 19 33  1  0  0  0
 20 34  1  0  0  0
M  END
> <s_m_entry_id>
397

> <s_m_entry_name>
7gel.pdb.1_ligand

> <s_pdb_PDB_TITLE>
GROUP DEPOSITION SARS-COV-2 MAIN PROTEASE IN COMPLEX WITH INHIBITORS FROM THE COVID MOONSHOT -- CRYSTAL STRUCTURE OF SARS-COV-2 MAIN PROTEASE IN COMPLEX WITH JAG-UCB-CEDD89AB-1 (MPRO-X11475)

> <s_pdb_PDB_ID>
7GEL

> <s_m_Source_File>
7gel.pdb.gz

> <s_user_Compound_ID>
JAG-UCB-cedd89ab-1

> <s_user_Monomer-Dimer>
Monomer

> <s_user_xcode>
Mpro-x11475

$$$$
