7GEM_ligand
                    3D
 Schrodinger Suite 2021-2.
 30 31  0  0  1  0            999 V2000
    7.1951   -1.6737   18.8807 N   0  0  0  0  0  0
    8.4297   -1.6826   19.3829 C   0  0  0  0  0  0
    8.1595   -1.4505   21.8006 C   0  0  0  0  0  0
    8.6220   -0.5968   22.9654 C   0  0  0  0  0  0
    7.7422   -0.7547   24.1831 C   0  0  0  0  0  0
    8.1148   -1.5854   25.2326 C   0  0  0  0  0  0
    5.9839   -1.2606   26.2989 C   0  0  0  0  0  0
    4.1289    0.4695   25.3623 Cl  0  0  0  0  0  0
    5.6447   -0.3869   25.2826 C   0  0  0  0  0  0
    7.2482   -1.8331   26.2859 C   0  0  0  0  0  0
    6.5045   -0.1231   24.2332 C   0  0  0  0  0  0
    7.4597   -2.4573   21.9503 O   0  0  0  0  0  0
    8.6356   -1.0481   20.6068 N   0  0  0  0  0  0
    9.4809   -2.4083   18.7691 C   0  0  0  0  0  0
   10.8446   -2.5557   19.3949 C   0  0  0  0  0  0
    6.9035   -2.3522   17.7533 N   0  0  0  0  0  0
    7.8576   -3.0416   17.1325 C   0  0  0  0  0  0
    9.1542   -3.0877   17.6060 C   0  0  0  0  0  0
    8.6380    0.4504   22.6632 H   0  0  0  0  0  0
    9.6478   -0.8604   23.2229 H   0  0  0  0  0  0
    9.0908   -2.0479   25.2348 H   0  0  0  0  0  0
    5.2715   -1.4839   27.0793 H   0  0  0  0  0  0
    7.5562   -2.4731   27.0995 H   0  0  0  0  0  0
    6.2196    0.5692   23.4548 H   0  0  0  0  0  0
    9.1877   -0.2036   20.6512 H   0  0  0  0  0  0
   11.4819   -3.1523   18.7421 H   0  0  0  0  0  0
   11.2894   -1.5704   19.5344 H   0  0  0  0  0  0
   10.7499   -3.0512   20.3611 H   0  0  0  0  0  0
    7.6286   -3.5878   16.2294 H   0  0  0  0  0  0
    9.9112   -3.6477   17.0770 H   0  0  0  0  0  0
  1  2  1  0  0  0
  1 16  2  0  0  0
  2 13  1  0  0  0
  2 14  2  0  0  0
  3  4  1  0  0  0
  3 12  2  0  0  0
  3 13  1  0  0  0
  4  5  1  0  0  0
  4 19  1  0  0  0
  4 20  1  0  0  0
  5  6  1  0  0  0
  5 11  2  0  0  0
  6 10  2  0  0  0
  6 21  1  0  0  0
  7  9  2  0  0  0
  7 10  1  0  0  0
  7 22  1  0  0  0
  8  9  1  0  0  0
  9 11  1  0  0  0
 10 23  1  0  0  0
 11 24  1  0  0  0
 13 25  1  0  0  0
 14 15  1  0  0  0
 14 18  1  0  0  0
 15 26  1  0  0  0
 15 27  1  0  0  0
 15 28  1  0  0  0
 16 17  1  0  0  0
 17 18  2  0  0  0
 17 29  1  0  0  0
 18 30  1  0  0  0
M  END
> <s_m_entry_id>
399

> <s_m_entry_name>
7gem.pdb.1_ligand

> <s_pdb_PDB_TITLE>
GROUP DEPOSITION SARS-COV-2 MAIN PROTEASE IN COMPLEX WITH INHIBITORS FROM THE COVID MOONSHOT -- CRYSTAL STRUCTURE OF SARS-COV-2 MAIN PROTEASE IN COMPLEX WITH EDG-MED-0DA5AD92-15 (MPRO-X11485)

> <s_pdb_PDB_ID>
7GEM

> <s_m_Source_File>
7gem.pdb.gz

> <s_user_Compound_ID>
EDG-MED-0da5ad92-15

> <s_user_Monomer-Dimer>
Monomer

> <s_user_xcode>
Mpro-x11485

$$$$
