7GEN_ligand
                    3D
 Schrodinger Suite 2021-2.
 36 37  0  0  1  0            999 V2000
    7.0038   -2.1523   17.5785 N   0  0  0  0  0  0
    8.5003   -1.6165   19.3903 C   0  0  0  0  0  0
    7.2737   -1.5230   18.7287 C   0  0  0  0  0  0
    7.9752   -2.9067   17.0487 C   0  0  0  0  0  0
    9.2231   -3.0583   17.6246 C   0  0  0  0  0  0
    9.5141   -2.4068   18.8201 C   0  0  0  0  0  0
    7.6296   -1.0436   24.1706 C   0  0  0  0  0  0
    5.6116   -1.6578   26.0019 C   0  0  0  0  0  0
    6.5408   -0.1904   24.3319 C   0  0  0  0  0  0
    4.1341    0.5009   25.3227 Cl  0  0  0  0  0  0
    5.5459   -0.5174   25.2281 C   0  0  0  0  0  0
    6.7004   -2.5049   25.8503 C   0  0  0  0  0  0
    7.7030   -2.1961   24.9424 C   0  0  0  0  0  0
    8.6617   -0.7640   23.0820 C   0  0  0  0  0  0
   10.0460   -1.2114   23.5374 C   0  0  0  0  0  0
   10.6056   -2.2028   23.1538 O   0  5  0  0  0  0
   10.5330   -0.3738   24.4576 O   0  0  0  0  0  0
   11.7209   -0.8015   25.1665 C   0  0  0  0  0  0
    8.2570   -1.5351   21.8003 C   0  0  0  0  0  0
    7.5779   -2.5541   21.8444 O   0  0  0  0  0  0
    8.7118   -0.9994   20.6525 N   0  0  0  0  0  0
   10.8527   -2.5915   19.4906 C   0  0  0  0  0  0
    6.5222   -0.9024   19.1940 H   0  0  0  0  0  0
    7.8036   -3.4364   16.1232 H   0  0  0  0  0  0
    9.9663   -3.6797   17.1473 H   0  0  0  0  0  0
    4.8250   -1.8769   26.7087 H   0  0  0  0  0  0
    6.4794    0.7215   23.7566 H   0  0  0  0  0  0
    6.7689   -3.4071   26.4400 H   0  0  0  0  0  0
    8.5467   -2.8624   24.8390 H   0  0  0  0  0  0
   12.0130   -0.0340   25.8832 H   0  0  0  0  0  0
   11.5138   -1.7318   25.6954 H   0  0  0  0  0  0
   12.5313   -0.9611   24.4553 H   0  0  0  0  0  0
    9.2192   -0.1280   20.7099 H   0  0  0  0  0  0
   11.4807   -3.2379   18.8774 H   0  0  0  0  0  0
   11.3369   -1.6223   19.6096 H   0  0  0  0  0  0
   10.7092   -3.0481   20.4699 H   0  0  0  0  0  0
  1  3  1  0  0  0
  1  4  2  0  0  0
  2  3  2  0  0  0
  2  6  1  0  0  0
  2 21  1  0  0  0
  3 23  1  0  0  0
  4  5  1  0  0  0
  4 24  1  0  0  0
  5  6  2  0  0  0
  5 25  1  0  0  0
  6 22  1  0  0  0
  7  9  1  0  0  0
  7 13  2  0  0  0
  7 14  1  0  0  0
  8 11  1  0  0  0
  8 12  2  0  0  0
  8 26  1  0  0  0
  9 11  2  0  0  0
  9 27  1  0  0  0
 10 11  1  0  0  0
 12 13  1  0  0  0
 12 28  1  0  0  0
 13 29  1  0  0  0
 14 15  2  0  0  0
 14 19  1  0  0  0
 15 16  1  0  0  0
 15 17  1  0  0  0
 17 18  1  0  0  0
 18 30  1  0  0  0
 18 31  1  0  0  0
 18 32  1  0  0  0
 19 20  2  0  0  0
 19 21  1  0  0  0
 21 33  1  0  0  0
 22 34  1  0  0  0
 22 35  1  0  0  0
 22 36  1  0  0  0
M  CHG  1  16  -1
M  END
> <s_m_entry_id>
401

> <s_m_entry_name>
7gen.pdb.1_ligand

> <s_pdb_PDB_TITLE>
GROUP DEPOSITION SARS-COV-2 MAIN PROTEASE IN COMPLEX WITH INHIBITORS FROM THE COVID MOONSHOT -- CRYSTAL STRUCTURE OF SARS-COV-2 MAIN PROTEASE IN COMPLEX WITH MAT-POS-1E5F28A7-1 (MPRO-X11488)

> <s_pdb_PDB_ID>
7GEN

> <s_m_Source_File>
7gen.pdb.gz

> <s_user_Compound_ID>
MAT-POS-1e5f28a7-1

> <s_user_Monomer-Dimer>
Monomer

> <s_user_xcode>
Mpro-x11488

$$$$
