7GEO_ligand
                    3D
 Schrodinger Suite 2021-2.
 32 34  0  0  1  0            999 V2000
    7.2803   -1.8911   17.8483 N   0  0  0  0  0  0
    7.5270   -0.4840   23.5645 C   0  0  0  0  0  0
    7.9994   -0.0560   22.1964 C   0  0  0  0  0  0
    7.8894   -1.1482   21.1516 C   0  0  0  0  0  0
    8.2324   -1.6269   18.8252 C   0  0  0  0  0  0
    7.8865   -2.7462   17.0430 C   0  0  0  0  0  0
   11.3654   -3.9229   17.4826 C   0  0  0  0  0  0
    9.3884   -2.3240   18.6245 C   0  0  0  0  0  0
    7.5275   -2.2911   21.4242 O   0  0  0  0  0  0
    8.3115   -1.2829   24.3858 C   0  0  0  0  0  0
    7.8226   -1.7487   25.5986 C   0  0  0  0  0  0
    6.5427   -1.4073   26.0108 C   0  0  0  0  0  0
    6.2612   -0.1126   24.0004 C   0  0  0  0  0  0
    5.7952   -0.5627   25.2139 C   0  0  0  0  0  0
    4.2761    0.0504   25.8017 Cl  0  0  0  0  0  0
    8.1489   -0.7420   19.8758 N   0  0  0  0  0  0
    9.1604   -3.0440   17.4543 N   0  0  0  0  0  0
   10.6583   -2.4299   19.2475 C   0  0  0  0  0  0
   11.6234   -3.2090   18.6770 C   0  0  0  0  0  0
   10.1561   -3.8455   16.8869 C   0  0  0  0  0  0
    9.0341    0.2809   22.2600 H   0  0  0  0  0  0
    7.4281    0.8138   21.8721 H   0  0  0  0  0  0
    7.3715   -3.1271   16.1735 H   0  0  0  0  0  0
   12.1384   -4.5348   17.0416 H   0  0  0  0  0  0
    9.3138   -1.5481   24.0834 H   0  0  0  0  0  0
    8.4390   -2.3782   26.2233 H   0  0  0  0  0  0
    6.1509   -1.8005   26.9372 H   0  0  0  0  0  0
    5.6454    0.5283   23.3868 H   0  0  0  0  0  0
    8.2874    0.2384   19.6762 H   0  0  0  0  0  0
   10.8555   -1.8966   20.1657 H   0  0  0  0  0  0
   12.5929   -3.2769   19.1480 H   0  0  0  0  0  0
    9.9644   -4.3998   15.9801 H   0  0  0  0  0  0
  1  5  1  0  0  0
  1  6  2  0  0  0
  2  3  1  0  0  0
  2 10  1  0  0  0
  2 13  2  0  0  0
  3  4  1  0  0  0
  3 21  1  0  0  0
  3 22  1  0  0  0
  4  9  2  0  0  0
  4 16  1  0  0  0
  5  8  2  0  0  0
  5 16  1  0  0  0
  6 17  1  0  0  0
  6 23  1  0  0  0
  7 19  1  0  0  0
  7 20  2  0  0  0
  7 24  1  0  0  0
  8 17  1  0  0  0
  8 18  1  0  0  0
 10 11  2  0  0  0
 10 25  1  0  0  0
 11 12  1  0  0  0
 11 26  1  0  0  0
 12 14  2  0  0  0
 12 27  1  0  0  0
 13 14  1  0  0  0
 13 28  1  0  0  0
 14 15  1  0  0  0
 16 29  1  0  0  0
 17 20  1  0  0  0
 18 19  2  0  0  0
 18 30  1  0  0  0
 19 31  1  0  0  0
 20 32  1  0  0  0
M  END
> <s_m_entry_id>
403

> <s_m_entry_name>
7geo.pdb.1_ligand

> <s_pdb_PDB_TITLE>
GROUP DEPOSITION SARS-COV-2 MAIN PROTEASE IN COMPLEX WITH INHIBITORS FROM THE COVID MOONSHOT -- CRYSTAL STRUCTURE OF SARS-COV-2 MAIN PROTEASE IN COMPLEX WITH EDJ-MED-50FE53E8-3 (MPRO-X11493)

> <s_pdb_PDB_ID>
7GEO

> <s_m_Source_File>
7geo.pdb.gz

> <s_user_Compound_ID>
EDJ-MED-50fe53e8-3

> <s_user_Monomer-Dimer>
Monomer

> <s_user_xcode>
Mpro-x11493

$$$$
