7GEQ_ligand
                    3D
 Schrodinger Suite 2021-2.
 39 42  0  0  1  0            999 V2000
    7.0504   -2.1269   17.4394 N   0  0  0  0  0  0
    9.7756   -2.2524   24.2016 C   0  0  0  0  0  0
    9.8279   -0.9489   23.4457 C   0  0  0  0  0  0
    8.4067   -0.5138   23.0534 C   0  0  1  0  0  0
    7.9484   -1.3330   21.8451 C   0  0  0  0  0  0
    8.2749   -1.3265   19.3758 C   0  0  0  0  0  0
    8.1201   -2.8179   17.0615 C   0  0  0  0  0  0
   11.6203   -3.5877   18.0924 C   0  0  0  0  0  0
   10.6308   -2.1422   19.7239 C   0  0  0  0  0  0
    7.4138   -0.7328   24.1772 C   0  0  0  0  0  0
    7.3804   -2.4139   21.9645 O   0  0  0  0  0  0
    8.9728   -2.1461   25.3994 O   0  0  0  0  0  0
    7.7347   -1.5733   25.2465 C   0  0  0  0  0  0
    6.8184   -1.8473   26.2521 C   0  0  0  0  0  0
    5.5640   -1.2673   26.2106 C   0  0  0  0  0  0
    6.1547   -0.1365   24.1666 C   0  0  0  0  0  0
    5.2567   -0.4076   25.1796 C   0  0  0  0  0  0
    3.7052    0.3814   25.1666 Cl  0  0  0  0  0  0
    8.2029   -0.7619   20.6557 N   0  0  0  0  0  0
    9.4129   -2.1045   18.9916 C   0  0  0  0  0  0
   11.6993   -2.8668   19.2749 C   0  0  0  0  0  0
   10.4705   -3.5920   17.3568 C   0  0  0  0  0  0
    9.3367   -2.8556   17.7854 C   0  0  0  0  0  0
    7.1486   -1.3948   18.5564 C   0  0  0  0  0  0
   10.7873   -2.5574   24.4690 H   0  0  0  0  0  0
    9.3642   -3.0292   23.5571 H   0  0  0  0  0  0
   10.4303   -1.0749   22.5461 H   0  0  0  0  0  0
   10.2817   -0.1827   24.0742 H   0  0  0  0  0  0
    8.4171    0.5429   22.7860 H   0  0  0  0  0  0
    8.0943   -3.3979   16.1509 H   0  0  0  0  0  0
   12.4733   -4.1524   17.7462 H   0  0  0  0  0  0
   10.7216   -1.5931   20.6495 H   0  0  0  0  0  0
    7.0868   -2.5103   27.0613 H   0  0  0  0  0  0
    4.8401   -1.4906   26.9804 H   0  0  0  0  0  0
    5.8826    0.5365   23.3669 H   0  0  0  0  0  0
    8.3803    0.2308   20.5998 H   0  0  0  0  0  0
   12.6124   -2.8741   19.8518 H   0  0  0  0  0  0
   10.4184   -4.1595   16.4395 H   0  0  0  0  0  0
    6.3124   -0.7951   18.8843 H   0  0  0  0  0  0
  1  7  1  0  0  0
  1 24  2  0  0  0
  2  3  1  0  0  0
  2 12  1  0  0  0
  2 25  1  0  0  0
  2 26  1  0  0  0
  3  4  1  0  0  0
  3 27  1  0  0  0
  3 28  1  0  0  0
  4  5  1  0  0  0
  4 10  1  0  0  0
  4 29  1  0  0  0
  5 11  2  0  0  0
  5 19  1  0  0  0
  6 19  1  0  0  0
  6 20  2  0  0  0
  6 24  1  0  0  0
  7 23  2  0  0  0
  7 30  1  0  0  0
  8 21  1  0  0  0
  8 22  2  0  0  0
  8 31  1  0  0  0
  9 20  1  0  0  0
  9 21  2  0  0  0
  9 32  1  0  0  0
 10 13  1  0  0  0
 10 16  2  0  0  0
 12 13  1  0  0  0
 13 14  2  0  0  0
 14 15  1  0  0  0
 14 33  1  0  0  0
 15 17  2  0  0  0
 15 34  1  0  0  0
 16 17  1  0  0  0
 16 35  1  0  0  0
 17 18  1  0  0  0
 19 36  1  0  0  0
 20 23  1  0  0  0
 21 37  1  0  0  0
 22 23  1  0  0  0
 22 38  1  0  0  0
 24 39  1  0  0  0
M  END
> <s_m_entry_id>
405

> <s_m_entry_name>
7geq.pdb.1_ligand

> <s_pdb_PDB_TITLE>
GROUP DEPOSITION SARS-COV-2 MAIN PROTEASE IN COMPLEX WITH INHIBITORS FROM THE COVID MOONSHOT -- CRYSTAL STRUCTURE OF SARS-COV-2 MAIN PROTEASE IN COMPLEX WITH VLA-UCB-1DBCA3B4-15 (MPRO-X11498)

> <s_pdb_PDB_ID>
7GEQ

> <s_m_Source_File>
7geq.pdb.gz

> <s_user_Compound_ID>
VLA-UCB-1dbca3b4-15

> <s_user_Monomer-Dimer>
Monomer

> <s_user_xcode>
Mpro-x11498

$$$$
