7GER_ligand
                    3D
 Schrodinger Suite 2021-2.
 33 35  0  0  1  0            999 V2000
    7.0856   -2.0123   17.1714 N   0  0  0  0  0  0
    7.4845   -0.6802   24.0748 C   0  0  0  0  0  0
    8.3798   -0.4582   22.8761 C   0  0  0  0  0  0
    8.0632   -1.4185   21.7438 C   0  0  0  0  0  0
    8.1791   -1.3457   19.2375 C   0  0  0  0  0  0
    7.1421   -1.3035   18.3053 C   0  0  0  0  0  0
    9.2792   -2.8996   17.6898 C   0  0  0  0  0  0
   10.5424   -2.2473   19.6196 C   0  0  0  0  0  0
    6.2560   -0.0347   24.1570 C   0  0  0  0  0  0
    7.8255   -2.6010   21.9524 O   0  0  0  0  0  0
    7.8254   -1.5987   25.0608 C   0  0  0  0  0  0
    6.9398   -1.9021   26.0856 C   0  0  0  0  0  0
    5.7038   -1.2756   26.1473 C   0  0  0  0  0  0
    5.3859   -0.3432   25.1836 C   0  0  0  0  0  0
    3.8386    0.4555   25.2454 Cl  0  0  0  0  0  0
    7.9508   -0.8459   20.5319 N   0  0  0  0  0  0
    9.3087   -2.1756   18.9213 C   0  0  0  0  0  0
   11.6340   -2.8834   19.1956 N   0  0  0  0  0  0
   11.5628   -3.5323   18.0276 C   0  0  0  0  0  0
   10.4446   -3.5888   17.2632 C   0  0  0  0  0  0
    8.1211   -2.7838   16.8814 C   0  0  0  0  0  0
    9.4213   -0.5797   23.1740 H   0  0  0  0  0  0
    8.2669    0.5672   22.5241 H   0  0  0  0  0  0
    6.3386   -0.6287   18.5609 H   0  0  0  0  0  0
   10.6497   -1.7603   20.5775 H   0  0  0  0  0  0
    5.9845    0.7058   23.4192 H   0  0  0  0  0  0
    8.7890   -2.0857   25.0353 H   0  0  0  0  0  0
    7.2124   -2.6276   26.8377 H   0  0  0  0  0  0
    5.0125   -1.5220   26.9396 H   0  0  0  0  0  0
    7.6536    0.1162   20.4536 H   0  0  0  0  0  0
   12.4292   -4.0509   17.6443 H   0  0  0  0  0  0
   10.4330   -4.1490   16.3399 H   0  0  0  0  0  0
    8.1168   -3.3766   15.9786 H   0  0  0  0  0  0
  1  6  1  0  0  0
  1 21  2  0  0  0
  2  3  1  0  0  0
  2  9  1  0  0  0
  2 11  2  0  0  0
  3  4  1  0  0  0
  3 22  1  0  0  0
  3 23  1  0  0  0
  4 10  2  0  0  0
  4 16  1  0  0  0
  5  6  2  0  0  0
  5 16  1  0  0  0
  5 17  1  0  0  0
  6 24  1  0  0  0
  7 17  1  0  0  0
  7 20  2  0  0  0
  7 21  1  0  0  0
  8 17  2  0  0  0
  8 18  1  0  0  0
  8 25  1  0  0  0
  9 14  2  0  0  0
  9 26  1  0  0  0
 11 12  1  0  0  0
 11 27  1  0  0  0
 12 13  2  0  0  0
 12 28  1  0  0  0
 13 14  1  0  0  0
 13 29  1  0  0  0
 14 15  1  0  0  0
 16 30  1  0  0  0
 18 19  2  0  0  0
 19 20  1  0  0  0
 19 31  1  0  0  0
 20 32  1  0  0  0
 21 33  1  0  0  0
M  END
> <s_m_entry_id>
407

> <s_m_entry_name>
7ger.pdb.1_ligand

> <s_pdb_PDB_TITLE>
GROUP DEPOSITION SARS-COV-2 MAIN PROTEASE IN COMPLEX WITH INHIBITORS FROM THE COVID MOONSHOT -- CRYSTAL STRUCTURE OF SARS-COV-2 MAIN PROTEASE IN COMPLEX WITH MAT-POS-F7918075-5 (MPRO-X11499)

> <s_pdb_PDB_ID>
7GER

> <s_m_Source_File>
7ger.pdb.gz

> <s_user_Compound_ID>
MAT-POS-f7918075-5

> <s_user_Monomer-Dimer>
Monomer

> <s_user_xcode>
Mpro-x11499

$$$$
