7GES_ligand
                    3D
 Schrodinger Suite 2021-2.
 37 39  0  0  1  0            999 V2000
    7.0251   -1.9732   17.4070 N   0  0  0  0  0  0
    7.9066   -1.7863   24.9340 C   0  0  0  0  0  0
    7.0058   -2.1608   25.9171 C   0  0  0  0  0  0
    5.7813   -1.5246   26.0215 C   0  0  0  0  0  0
    5.4937   -0.5054   25.1424 C   0  0  0  0  0  0
    6.3691   -0.1346   24.1449 C   0  0  0  0  0  0
    7.2842   -1.3546   18.5627 C   0  0  0  0  0  0
   10.2377   -3.8054   16.9516 C   0  0  0  0  0  0
   11.6967   -3.3034   18.7818 C   0  0  0  0  0  0
    9.4908   -2.3132   18.7394 C   0  0  0  0  0  0
    3.9958    0.3566   25.3044 Cl  0  0  0  0  0  0
    7.5943   -0.7808   24.0313 C   0  0  0  0  0  0
    8.5441   -0.4175   22.9172 C   0  0  0  0  0  0
    8.2234   -1.2107   21.6648 C   0  0  0  0  0  0
    7.5427   -2.2299   21.7417 O   0  0  0  0  0  0
    8.7234   -0.7899   20.4815 N   0  0  0  0  0  0
    9.5171    0.4379   20.4132 C   0  0  0  0  0  0
    8.4767   -1.4770   19.2584 C   0  0  0  0  0  0
   10.7488   -2.5097   19.3588 C   0  0  0  0  0  0
   11.4412   -3.9492   17.5775 C   0  0  0  0  0  0
    9.2324   -2.9791   17.5139 C   0  0  0  0  0  0
    7.9732   -2.7605   16.9028 C   0  0  0  0  0  0
    8.8651   -2.2789   24.8638 H   0  0  0  0  0  0
    7.2577   -2.9527   26.6068 H   0  0  0  0  0  0
    5.0766   -1.8310   26.7803 H   0  0  0  0  0  0
    6.1014    0.6539   23.4572 H   0  0  0  0  0  0
    6.5401   -0.7122   19.0100 H   0  0  0  0  0  0
   10.0469   -4.3225   16.0228 H   0  0  0  0  0  0
   12.6557   -3.4344   19.2608 H   0  0  0  0  0  0
    9.5670   -0.6289   23.2288 H   0  0  0  0  0  0
    8.4617    0.6481   22.7030 H   0  0  0  0  0  0
    9.8301    0.6120   19.3837 H   0  0  0  0  0  0
    8.9157    1.2795   20.7568 H   0  0  0  0  0  0
   10.3974    0.3379   21.0481 H   0  0  0  0  0  0
   10.9533   -2.0217   20.3003 H   0  0  0  0  0  0
   12.2077   -4.5700   17.1378 H   0  0  0  0  0  0
    7.8046   -3.2801   15.9711 H   0  0  0  0  0  0
  1  7  1  0  0  0
  1 22  2  0  0  0
  2  3  1  0  0  0
  2 12  2  0  0  0
  2 23  1  0  0  0
  3  4  2  0  0  0
  3 24  1  0  0  0
  4  5  1  0  0  0
  4 25  1  0  0  0
  5  6  2  0  0  0
  5 11  1  0  0  0
  6 12  1  0  0  0
  6 26  1  0  0  0
  7 18  2  0  0  0
  7 27  1  0  0  0
  8 20  1  0  0  0
  8 21  2  0  0  0
  8 28  1  0  0  0
  9 19  1  0  0  0
  9 20  2  0  0  0
  9 29  1  0  0  0
 10 18  1  0  0  0
 10 19  2  0  0  0
 10 21  1  0  0  0
 12 13  1  0  0  0
 13 14  1  0  0  0
 13 30  1  0  0  0
 13 31  1  0  0  0
 14 15  2  0  0  0
 14 16  1  0  0  0
 16 17  1  0  0  0
 16 18  1  0  0  0
 17 32  1  0  0  0
 17 33  1  0  0  0
 17 34  1  0  0  0
 19 35  1  0  0  0
 20 36  1  0  0  0
 21 22  1  0  0  0
 22 37  1  0  0  0
M  END
> <s_m_entry_id>
409

> <s_m_entry_name>
7ges.pdb.1_ligand

> <s_pdb_PDB_TITLE>
GROUP DEPOSITION SARS-COV-2 MAIN PROTEASE IN COMPLEX WITH INHIBITORS FROM THE COVID MOONSHOT -- CRYSTAL STRUCTURE OF SARS-COV-2 MAIN PROTEASE IN COMPLEX WITH MAT-POS-BB423B95-7 (MPRO-X11501)

> <s_pdb_PDB_ID>
7GES

> <s_m_Source_File>
7ges.pdb.gz

> <s_user_Compound_ID>
MAT-POS-bb423b95-7

> <s_user_Monomer-Dimer>
Monomer

> <s_user_xcode>
Mpro-x11501

$$$$
