7GET_ligand
                    3D
 Schrodinger Suite 2021-2.
 38 40  0  0  1  0            999 V2000
    6.8997   -2.0561   17.1313 N   0  0  0  0  0  0
    7.5666   -1.0018   23.9619 C   0  0  0  0  0  0
    8.4978   -0.8473   22.7812 C   0  0  0  0  0  0
    8.1239   -1.7767   21.6426 C   0  0  0  0  0  0
    8.2037   -1.6266   19.0975 C   0  0  0  0  0  0
    7.1258   -1.3785   18.2591 C   0  0  0  0  0  0
    8.9302   -3.2760   17.5049 C   0  0  0  0  0  0
   11.2329   -1.8933   19.9108 C   0  0  0  0  0  0
   12.9008   -3.5014   20.5427 C   0  0  0  0  0  0
   10.8254   -4.2340   19.5822 C   0  0  0  0  0  0
    7.8234   -2.9509   21.8382 O   0  0  0  0  0  0
    7.8116   -1.9535   24.9439 C   0  0  0  0  0  0
    6.8900   -2.1881   25.9523 C   0  0  0  0  0  0
    5.7113   -1.4603   26.0034 C   0  0  0  0  0  0
    6.3987   -0.2487   24.0343 C   0  0  0  0  0  0
    5.4952   -0.4833   25.0518 C   0  0  0  0  0  0
    4.0685    0.5109   25.1595 Cl  0  0  0  0  0  0
    8.0570   -1.1858   20.4333 N   0  0  0  0  0  0
    9.1452   -2.5980   18.7045 C   0  0  0  0  0  0
    7.7972   -2.9784   16.7748 C   0  0  0  0  0  0
   10.3927   -2.9114   19.4567 C   0  0  0  0  0  0
   12.0731   -4.5231   20.1154 C   0  0  0  0  0  0
   12.4791   -2.1884   20.4439 C   0  0  0  0  0  0
    9.5206   -1.0535   23.0967 H   0  0  0  0  0  0
    8.4710    0.1845   22.4308 H   0  0  0  0  0  0
    6.4513   -0.5905   18.5601 H   0  0  0  0  0  0
    9.6421   -4.0145   17.1669 H   0  0  0  0  0  0
   10.9150   -0.8630   19.8490 H   0  0  0  0  0  0
   13.8736   -3.7300   20.9523 H   0  0  0  0  0  0
   10.1863   -5.0438   19.2627 H   0  0  0  0  0  0
    8.7298   -2.5219   24.9280 H   0  0  0  0  0  0
    7.0890   -2.9400   26.7016 H   0  0  0  0  0  0
    4.9848   -1.6627   26.7766 H   0  0  0  0  0  0
    6.2022    0.5152   23.2966 H   0  0  0  0  0  0
    7.8607   -0.1975   20.3644 H   0  0  0  0  0  0
    7.6581   -3.5440   15.8653 H   0  0  0  0  0  0
   12.3972   -5.5501   20.1960 H   0  0  0  0  0  0
   13.1237   -1.3912   20.7836 H   0  0  0  0  0  0
  1  6  1  0  0  0
  1 20  2  0  0  0
  2  3  1  0  0  0
  2 12  1  0  0  0
  2 15  2  0  0  0
  3  4  1  0  0  0
  3 24  1  0  0  0
  3 25  1  0  0  0
  4 11  2  0  0  0
  4 18  1  0  0  0
  5  6  2  0  0  0
  5 18  1  0  0  0
  5 19  1  0  0  0
  6 26  1  0  0  0
  7 19  2  0  0  0
  7 20  1  0  0  0
  7 27  1  0  0  0
  8 21  1  0  0  0
  8 23  2  0  0  0
  8 28  1  0  0  0
  9 22  2  0  0  0
  9 23  1  0  0  0
  9 29  1  0  0  0
 10 21  2  0  0  0
 10 22  1  0  0  0
 10 30  1  0  0  0
 12 13  2  0  0  0
 12 31  1  0  0  0
 13 14  1  0  0  0
 13 32  1  0  0  0
 14 16  2  0  0  0
 14 33  1  0  0  0
 15 16  1  0  0  0
 15 34  1  0  0  0
 16 17  1  0  0  0
 18 35  1  0  0  0
 19 21  1  0  0  0
 20 36  1  0  0  0
 22 37  1  0  0  0
 23 38  1  0  0  0
M  END
> <s_m_entry_id>
411

> <s_m_entry_name>
7get.pdb.1_ligand

> <s_pdb_PDB_TITLE>
GROUP DEPOSITION SARS-COV-2 MAIN PROTEASE IN COMPLEX WITH INHIBITORS FROM THE COVID MOONSHOT -- CRYSTAL STRUCTURE OF SARS-COV-2 MAIN PROTEASE IN COMPLEX WITH ALP-POS-0C2C77E1-1 (MPRO-X11507)

> <s_pdb_PDB_ID>
7GET

> <s_m_Source_File>
7get.pdb.gz

> <s_user_Compound_ID>
ALP-POS-0c2c77e1-1

> <s_user_Monomer-Dimer>
Monomer

> <s_user_xcode>
Mpro-x11507

$$$$
