7GEU_ligand
                    3D
 Schrodinger Suite 2021-2.
 33 35  0  0  1  0            999 V2000
    7.1731   -1.3725   18.5192 N   0  0  0  0  0  0
    7.6820   -0.7127   23.9566 C   0  0  0  0  0  0
    8.5427   -0.4122   22.7506 C   0  0  0  0  0  0
    8.1495   -1.2939   21.5803 C   0  0  0  0  0  0
    8.3331   -1.3185   19.1634 C   0  0  0  0  0  0
    7.9698   -2.8709   16.9810 C   0  0  0  0  0  0
   10.3307   -3.6605   17.0457 C   0  0  0  0  0  0
   10.7257   -2.1778   19.3628 C   0  0  0  0  0  0
    6.4819   -0.0354   24.1335 C   0  0  0  0  0  0
    7.6485   -2.4023   21.7405 O   0  0  0  0  0  0
    8.0141   -1.7314   24.8422 C   0  0  0  0  0  0
    7.1545   -2.0863   25.8713 C   0  0  0  0  0  0
    5.9553   -1.4121   26.0420 C   0  0  0  0  0  0
    5.6399   -0.3925   25.1642 C   0  0  0  0  0  0
    4.1242    0.4483   25.3377 Cl  0  0  0  0  0  0
    8.2862   -0.7471   20.3748 N   0  0  0  0  0  0
    9.4449   -2.1416   18.7543 C   0  0  0  0  0  0
    9.2462   -2.9142   17.5760 C   0  0  0  0  0  0
    6.9767   -2.1657   17.4524 N   0  0  0  0  0  0
   11.7437   -2.9164   18.8188 C   0  0  0  0  0  0
   11.5451   -3.6516   17.6633 C   0  0  0  0  0  0
    9.5897   -0.5851   22.9997 H   0  0  0  0  0  0
    8.4242    0.6350   22.4720 H   0  0  0  0  0  0
    7.7718   -3.4414   16.0856 H   0  0  0  0  0  0
   10.1971   -4.2418   16.1454 H   0  0  0  0  0  0
   10.9095   -1.6182   20.2680 H   0  0  0  0  0  0
    6.2116    0.7681   23.4644 H   0  0  0  0  0  0
    8.9512   -2.2573   24.7336 H   0  0  0  0  0  0
    7.4186   -2.8901   26.5426 H   0  0  0  0  0  0
    5.2908   -1.6875   26.8476 H   0  0  0  0  0  0
    8.3741    0.2547   20.2817 H   0  0  0  0  0  0
   12.7144   -2.9290   19.2921 H   0  0  0  0  0  0
   12.3644   -4.2222   17.2515 H   0  0  0  0  0  0
  1  5  1  0  0  0
  1 19  2  0  0  0
  2  3  1  0  0  0
  2  9  1  0  0  0
  2 11  2  0  0  0
  3  4  1  0  0  0
  3 22  1  0  0  0
  3 23  1  0  0  0
  4 10  2  0  0  0
  4 16  1  0  0  0
  5 16  1  0  0  0
  5 17  2  0  0  0
  6 18  2  0  0  0
  6 19  1  0  0  0
  6 24  1  0  0  0
  7 18  1  0  0  0
  7 21  2  0  0  0
  7 25  1  0  0  0
  8 17  1  0  0  0
  8 20  2  0  0  0
  8 26  1  0  0  0
  9 14  2  0  0  0
  9 27  1  0  0  0
 11 12  1  0  0  0
 11 28  1  0  0  0
 12 13  2  0  0  0
 12 29  1  0  0  0
 13 14  1  0  0  0
 13 30  1  0  0  0
 14 15  1  0  0  0
 16 31  1  0  0  0
 17 18  1  0  0  0
 20 21  1  0  0  0
 20 32  1  0  0  0
 21 33  1  0  0  0
M  END
> <s_m_entry_id>
413

> <s_m_entry_name>
7geu.pdb.1_ligand

> <s_pdb_PDB_TITLE>
GROUP DEPOSITION SARS-COV-2 MAIN PROTEASE IN COMPLEX WITH INHIBITORS FROM THE COVID MOONSHOT -- CRYSTAL STRUCTURE OF SARS-COV-2 MAIN PROTEASE IN COMPLEX WITH EDJ-MED-50FE53E8-1 (MPRO-X11508)

> <s_pdb_PDB_ID>
7GEU

> <s_m_Source_File>
7geu.pdb.gz

> <s_user_Compound_ID>
EDJ-MED-50fe53e8-1

> <s_user_Monomer-Dimer>
Monomer

> <s_user_xcode>
Mpro-x11508

$$$$
