7GEV_ligand
                    3D
 Schrodinger Suite 2021-2.
 34 35  0  0  1  0            999 V2000
    8.4290   -0.9338   20.9410 N   0  0  0  0  0  0
    7.1501   -1.4040   18.8997 C   0  0  0  0  0  0
    8.3244   -1.5103   19.6468 C   0  0  0  0  0  0
    7.8359   -1.4010   22.0659 C   0  0  0  0  0  0
    8.0135   -0.5232   23.2864 C   0  0  0  0  0  0
    7.7080   -1.2636   24.6124 C   0  0  0  0  0  0
    6.3981   -0.2878   26.5451 C   0  0  0  0  0  0
    8.4981    1.3352   27.2474 C   0  0  0  0  0  0
    9.8808    2.2607   27.7613 Cl  0  0  0  0  0  0
    7.3300    1.4034   27.9797 C   0  0  0  0  0  0
    6.2742    0.5808   27.6210 C   0  0  0  0  0  0
    8.6292    0.4933   26.1595 C   0  0  0  0  0  0
    7.5720   -0.3373   25.7994 C   0  0  0  0  0  0
    7.1955   -2.4486   22.1138 O   0  0  0  0  0  0
    9.3974   -2.2480   19.1062 C   0  0  0  0  0  0
   10.7064   -2.4092   19.8362 C   0  0  0  0  0  0
    6.9811   -1.9695   17.6993 N   0  0  0  0  0  0
    8.0068   -2.6671   17.1978 C   0  0  0  0  0  0
    9.2108   -2.8300   17.8543 C   0  0  0  0  0  0
    8.9843   -0.1016   21.0798 H   0  0  0  0  0  0
    6.3136   -0.8404   19.2857 H   0  0  0  0  0  0
    7.3665    0.3498   23.2018 H   0  0  0  0  0  0
    9.0339   -0.1408   23.3121 H   0  0  0  0  0  0
    8.4949   -1.9916   24.8098 H   0  0  0  0  0  0
    6.7926   -1.8444   24.4998 H   0  0  0  0  0  0
    5.5771   -0.9366   26.2776 H   0  0  0  0  0  0
    7.2536    2.0874   28.8120 H   0  0  0  0  0  0
    5.3522    0.6174   28.1821 H   0  0  0  0  0  0
    9.5488    0.4819   25.5932 H   0  0  0  0  0  0
   11.3859   -3.0138   19.2355 H   0  0  0  0  0  0
   11.1498   -1.4286   20.0090 H   0  0  0  0  0  0
   10.5314   -2.9020   20.7925 H   0  0  0  0  0  0
    7.9173   -3.1390   16.2305 H   0  0  0  0  0  0
   10.0054   -3.4048   17.4022 H   0  0  0  0  0  0
  1  3  1  0  0  0
  1  4  1  0  0  0
  1 20  1  0  0  0
  2  3  1  0  0  0
  2 17  2  0  0  0
  2 21  1  0  0  0
  3 15  2  0  0  0
  4  5  1  0  0  0
  4 14  2  0  0  0
  5  6  1  0  0  0
  5 22  1  0  0  0
  5 23  1  0  0  0
  6 13  1  0  0  0
  6 24  1  0  0  0
  6 25  1  0  0  0
  7 11  1  0  0  0
  7 13  2  0  0  0
  7 26  1  0  0  0
  8  9  1  0  0  0
  8 10  1  0  0  0
  8 12  2  0  0  0
 10 11  2  0  0  0
 10 27  1  0  0  0
 11 28  1  0  0  0
 12 13  1  0  0  0
 12 29  1  0  0  0
 15 16  1  0  0  0
 15 19  1  0  0  0
 16 30  1  0  0  0
 16 31  1  0  0  0
 16 32  1  0  0  0
 17 18  1  0  0  0
 18 19  2  0  0  0
 18 33  1  0  0  0
 19 34  1  0  0  0
M  END
> <s_m_entry_id>
415

> <s_m_entry_name>
7gev.pdb.1_ligand

> <s_pdb_PDB_TITLE>
GROUP DEPOSITION SARS-COV-2 MAIN PROTEASE IN COMPLEX WITH INHIBITORS FROM THE COVID MOONSHOT -- CRYSTAL STRUCTURE OF SARS-COV-2 MAIN PROTEASE IN COMPLEX WITH ALP-POS-F13221E1-4 (MPRO-X11513)

> <s_pdb_PDB_ID>
7GEV

> <s_m_Source_File>
7gev.pdb.gz

> <s_user_Compound_ID>
ALP-POS-f13221e1-4

> <s_user_Monomer-Dimer>
Monomer

> <s_user_xcode>
Mpro-x11513

$$$$
