7GEW_ligand
                    3D
 Schrodinger Suite 2021-2.
 33 35  0  0  1  0            999 V2000
    6.9604   -2.0367   17.3984 N   0  0  0  0  0  0
    7.6184   -0.6950   24.0901 C   0  0  0  0  0  0
    8.5574   -0.4827   22.9229 C   0  0  0  0  0  0
    8.1627   -1.3606   21.7511 C   0  0  0  0  0  0
    8.3783   -1.3454   19.2359 C   0  0  0  0  0  0
    7.2011   -1.3174   18.4991 C   0  0  0  0  0  0
    9.1659   -3.0143   17.6235 C   0  0  0  0  0  0
   11.5317   -3.0553   18.9854 C   0  0  0  0  0  0
    6.3809   -0.0577   24.1170 C   0  0  0  0  0  0
    7.4803   -2.3698   21.9072 O   0  0  0  0  0  0
    7.9269   -1.5998   25.0973 C   0  0  0  0  0  0
    7.0087   -1.8897   26.0956 C   0  0  0  0  0  0
    5.7661   -1.2756   26.1049 C   0  0  0  0  0  0
    5.4767   -0.3579   25.1155 C   0  0  0  0  0  0
    3.9447    0.4792   25.1460 Cl  0  0  0  0  0  0
    8.4538   -0.8562   20.5530 N   0  0  0  0  0  0
    9.3688   -2.2887   18.8198 C   0  0  0  0  0  0
   10.5507   -2.3282   19.5059 N   0  0  0  0  0  0
   11.4416   -3.7533   17.7865 C   0  0  0  0  0  0
   10.2651   -3.7329   17.0993 C   0  0  0  0  0  0
    7.9319   -2.8270   16.9568 C   0  0  0  0  0  0
    9.5760   -0.7216   23.2285 H   0  0  0  0  0  0
    8.5276    0.5636   22.6188 H   0  0  0  0  0  0
    6.4460   -0.6468   18.8818 H   0  0  0  0  0  0
   12.4779   -3.1329   19.5001 H   0  0  0  0  0  0
    6.1311    0.6689   23.3580 H   0  0  0  0  0  0
    8.8909   -2.0866   25.1092 H   0  0  0  0  0  0
    7.2601   -2.5976   26.8715 H   0  0  0  0  0  0
    5.0493   -1.5188   26.8753 H   0  0  0  0  0  0
    8.8162    0.0833   20.4751 H   0  0  0  0  0  0
   12.2956   -4.2997   17.4143 H   0  0  0  0  0  0
   10.1682   -4.2598   16.1615 H   0  0  0  0  0  0
    7.8050   -3.3753   16.0350 H   0  0  0  0  0  0
  1  6  1  0  0  0
  1 21  2  0  0  0
  2  3  1  0  0  0
  2  9  1  0  0  0
  2 11  2  0  0  0
  3  4  1  0  0  0
  3 22  1  0  0  0
  3 23  1  0  0  0
  4 10  2  0  0  0
  4 16  1  0  0  0
  5  6  2  0  0  0
  5 16  1  0  0  0
  5 17  1  0  0  0
  6 24  1  0  0  0
  7 17  1  0  0  0
  7 20  2  0  0  0
  7 21  1  0  0  0
  8 18  1  0  0  0
  8 19  2  0  0  0
  8 25  1  0  0  0
  9 14  2  0  0  0
  9 26  1  0  0  0
 11 12  1  0  0  0
 11 27  1  0  0  0
 12 13  2  0  0  0
 12 28  1  0  0  0
 13 14  1  0  0  0
 13 29  1  0  0  0
 14 15  1  0  0  0
 16 30  1  0  0  0
 17 18  2  0  0  0
 19 20  1  0  0  0
 19 31  1  0  0  0
 20 32  1  0  0  0
 21 33  1  0  0  0
M  END
> <s_m_entry_id>
417

> <s_m_entry_name>
7gew.pdb.1_ligand

> <s_pdb_PDB_TITLE>
GROUP DEPOSITION SARS-COV-2 MAIN PROTEASE IN COMPLEX WITH INHIBITORS FROM THE COVID MOONSHOT -- CRYSTAL STRUCTURE OF SARS-COV-2 MAIN PROTEASE IN COMPLEX WITH MAT-POS-BB423B95-2 (MPRO-X11530)

> <s_pdb_PDB_ID>
7GEW

> <s_m_Source_File>
7gew.pdb.gz

> <s_user_Compound_ID>
MAT-POS-bb423b95-2

> <s_user_Monomer-Dimer>
Monomer

> <s_user_xcode>
Mpro-x11530

$$$$
