7GEX_ligand
                    3D
 Schrodinger Suite 2021-2.
 26 27  0  0  1  0            999 V2000
    6.7762   -2.0991   17.6974 N   0  0  0  0  0  0
    7.4616   -0.9036   24.1252 C   0  0  0  0  0  0
    8.4060   -0.6931   22.9671 C   0  0  0  0  0  0
    7.9586   -1.5434   21.7968 C   0  0  0  0  0  0
    8.2210   -1.7174   19.3723 C   0  0  0  0  0  0
    6.8832   -1.8878   19.0027 C   0  0  0  0  0  0
    6.2539   -0.2185   24.1645 C   0  0  0  0  0  0
    7.0858   -2.3991   21.9089 O   0  0  0  0  0  0
    7.7199   -1.8644   25.0949 C   0  0  0  0  0  0
    6.7715   -2.1737   26.0584 C   0  0  0  0  0  0
    5.5545   -1.5118   26.0763 C   0  0  0  0  0  0
    5.3249   -0.5269   25.1359 C   0  0  0  0  0  0
    3.8674    0.4152   25.2261 Cl  0  0  0  0  0  0
    8.6919   -1.3949   20.6566 N   0  0  0  0  0  0
    8.9165   -1.8009   18.2050 C   0  0  0  0  0  0
    8.0393   -2.0538   17.2297 N   0  0  0  0  0  0
    5.8674   -2.2476   17.2827 H   0  0  0  0  0  0
    9.4139   -0.9840   23.2629 H   0  0  0  0  0  0
    8.3963    0.3576   22.6771 H   0  0  0  0  0  0
    5.9977   -1.8668   19.6206 H   0  0  0  0  0  0
    6.0460    0.5517   23.4364 H   0  0  0  0  0  0
    8.6686   -2.3806   25.1045 H   0  0  0  0  0  0
    6.9805   -2.9327   26.7978 H   0  0  0  0  0  0
    4.8102   -1.7700   26.8151 H   0  0  0  0  0  0
    9.6338   -1.0338   20.7054 H   0  0  0  0  0  0
    9.9882   -1.6666   18.2041 H   0  0  0  0  0  0
  1  6  1  0  0  0
  1 16  1  0  0  0
  1 17  1  0  0  0
  2  3  1  0  0  0
  2  7  1  0  0  0
  2  9  2  0  0  0
  3  4  1  0  0  0
  3 18  1  0  0  0
  3 19  1  0  0  0
  4  8  2  0  0  0
  4 14  1  0  0  0
  5  6  2  0  0  0
  5 14  1  0  0  0
  5 15  1  0  0  0
  6 20  1  0  0  0
  7 12  2  0  0  0
  7 21  1  0  0  0
  9 10  1  0  0  0
  9 22  1  0  0  0
 10 11  2  0  0  0
 10 23  1  0  0  0
 11 12  1  0  0  0
 11 24  1  0  0  0
 12 13  1  0  0  0
 14 25  1  0  0  0
 15 16  2  0  0  0
 15 26  1  0  0  0
M  END
> <s_m_entry_id>
419

> <s_m_entry_name>
7gex.pdb.1_ligand

> <s_pdb_PDB_TITLE>
GROUP DEPOSITION SARS-COV-2 MAIN PROTEASE IN COMPLEX WITH INHIBITORS FROM THE COVID MOONSHOT -- CRYSTAL STRUCTURE OF SARS-COV-2 MAIN PROTEASE IN COMPLEX WITH MIC-UNK-66895286-1 (MPRO-X11532)

> <s_pdb_PDB_ID>
7GEX

> <s_m_Source_File>
7gex.pdb.gz

> <s_user_Compound_ID>
MIC-UNK-66895286-1

> <s_user_Monomer-Dimer>
Monomer

> <s_user_xcode>
Mpro-x11532

$$$$
