7GEY_ligand
                    3D
 Schrodinger Suite 2021-2.
 29 30  0  0  1  0            999 V2000
    7.0437   -1.9312   17.2185 N   0  0  0  0  0  0
    9.1949   -1.3582   20.1033 C   0  0  0  0  0  0
    8.4194   -1.9276   21.2673 C   0  0  0  0  0  0
    7.5238   -1.3821   23.4700 C   0  0  0  0  0  0
    7.7329   -2.5826   24.1445 C   0  0  0  0  0  0
    7.0243   -2.8547   25.3031 C   0  0  0  0  0  0
    5.9128   -0.7591   25.1063 C   0  0  0  0  0  0
    4.6972    0.3467   25.6527 Cl  0  0  0  0  0  0
    6.1008   -1.9422   25.7901 C   0  0  0  0  0  0
    6.6216   -0.4508   23.9641 C   0  0  0  0  0  0
    8.1999   -1.0742   22.2773 N   0  0  0  0  0  0
    8.0222   -3.0906   21.2590 O   0  0  0  0  0  0
    8.5001   -1.7640   18.8297 C   0  0  0  0  0  0
    8.8988   -2.7329   17.9247 C   0  0  0  0  0  0
   10.0687   -3.6603   18.0163 C   0  0  0  0  0  0
    7.3044   -1.2765   18.3517 C   0  0  0  0  0  0
    8.0175   -2.8293   16.9227 N   0  0  0  0  0  0
    6.2018   -1.7268   16.6994 H   0  0  0  0  0  0
   10.2072   -1.7624   20.1091 H   0  0  0  0  0  0
    9.2129   -0.2708   20.1763 H   0  0  0  0  0  0
    8.4462   -3.2986   23.7639 H   0  0  0  0  0  0
    7.1898   -3.7815   25.8321 H   0  0  0  0  0  0
    5.5447   -2.1642   26.6890 H   0  0  0  0  0  0
    6.4863    0.4924   23.4557 H   0  0  0  0  0  0
    8.5317   -0.1222   22.2153 H   0  0  0  0  0  0
   10.0965   -4.2993   17.1337 H   0  0  0  0  0  0
   10.9896   -3.0798   18.0732 H   0  0  0  0  0  0
    9.9739   -4.2786   18.9090 H   0  0  0  0  0  0
    6.6165   -0.5260   18.7122 H   0  0  0  0  0  0
  1 16  1  0  0  0
  1 17  1  0  0  0
  1 18  1  0  0  0
  2  3  1  0  0  0
  2 13  1  0  0  0
  2 19  1  0  0  0
  2 20  1  0  0  0
  3 11  1  0  0  0
  3 12  2  0  0  0
  4  5  1  0  0  0
  4 10  2  0  0  0
  4 11  1  0  0  0
  5  6  2  0  0  0
  5 21  1  0  0  0
  6  9  1  0  0  0
  6 22  1  0  0  0
  7  8  1  0  0  0
  7  9  2  0  0  0
  7 10  1  0  0  0
  9 23  1  0  0  0
 10 24  1  0  0  0
 11 25  1  0  0  0
 13 14  1  0  0  0
 13 16  2  0  0  0
 14 15  1  0  0  0
 14 17  2  0  0  0
 15 26  1  0  0  0
 15 27  1  0  0  0
 15 28  1  0  0  0
 16 29  1  0  0  0
M  END
> <s_m_entry_id>
421

> <s_m_entry_name>
7gey.pdb.1_ligand

> <s_pdb_PDB_TITLE>
GROUP DEPOSITION SARS-COV-2 MAIN PROTEASE IN COMPLEX WITH INHIBITORS FROM THE COVID MOONSHOT -- CRYSTAL STRUCTURE OF SARS-COV-2 MAIN PROTEASE IN COMPLEX WITH MIC-UNK-66895286-3 (MPRO-X11540)

> <s_pdb_PDB_ID>
7GEY

> <s_m_Source_File>
7gey.pdb.gz

> <s_user_Compound_ID>
MIC-UNK-66895286-3

> <s_user_Monomer-Dimer>
Monomer

> <s_user_xcode>
Mpro-x11540

$$$$
