7GEZ_ligand
                    3D
 Schrodinger Suite 2021-2.
 44 46  0  0  1  0            999 V2000
    8.6147    0.4171   23.5942 N   0  3  0  0  0  0
    6.8250   -1.9760   17.8152 N   0  0  0  0  0  0
    7.4263   -0.4155   23.4379 C   0  0  0  0  0  0
    7.4834   -1.3351   22.2279 C   0  0  0  0  0  0
    8.0338   -1.3350   19.8161 C   0  0  0  0  0  0
    6.8987   -1.3847   19.0135 C   0  0  0  0  0  0
    7.9206   -2.5497   17.3464 C   0  0  0  0  0  0
   10.2954   -3.2600   17.5453 C   0  0  0  0  0  0
   10.4307   -2.0410   20.0382 C   0  0  0  0  0  0
    8.4219    1.4426   24.6254 C   0  0  0  0  0  0
    7.0319   -2.4756   22.2693 O   0  0  0  0  0  0
    8.0371   -0.7912   21.1208 N   0  0  0  0  0  0
    9.2147   -1.9656   19.3173 C   0  0  0  0  0  0
   11.5084   -2.7015   19.5272 C   0  0  0  0  0  0
   11.4413   -3.3110   18.2843 C   0  0  0  0  0  0
    9.1506   -2.5939   18.0411 C   0  0  0  0  0  0
    9.7811   -0.3906   23.9534 C   0  0  0  0  0  0
   11.0328    0.4744   23.9509 C   0  0  0  0  0  0
    9.6224    2.3831   24.6571 C   0  0  0  0  0  0
   10.8673    1.6237   24.8560 N   0  0  0  0  0  0
   11.8583    1.9682   25.7228 C   0  0  0  0  0  0
   12.8796    1.3001   25.8012 O   0  0  0  0  0  0
   11.6813    3.2049   26.5529 C   0  0  0  0  0  0
    8.8017    0.8775   22.7149 H   0  0  0  0  0  0
    6.5450    0.2219   23.3666 H   0  0  0  0  0  0
    7.2813   -1.0117   24.3388 H   0  0  0  0  0  0
    6.0301   -0.8949   19.4283 H   0  0  0  0  0  0
    7.9093   -3.0231   16.3757 H   0  0  0  0  0  0
   10.2579   -3.7306   16.5739 H   0  0  0  0  0  0
   10.5140   -1.5714   21.0072 H   0  0  0  0  0  0
    8.3105    0.9630   25.5979 H   0  0  0  0  0  0
    7.5194    2.0130   24.4059 H   0  0  0  0  0  0
    8.5151    0.0965   21.1792 H   0  0  0  0  0  0
   12.4273   -2.7540   20.0922 H   0  0  0  0  0  0
   12.3078   -3.8300   17.9020 H   0  0  0  0  0  0
    9.8978   -1.2002   23.2331 H   0  0  0  0  0  0
    9.6360   -0.8163   24.9463 H   0  0  0  0  0  0
   11.2239    0.8334   22.9396 H   0  0  0  0  0  0
   11.8865   -0.1216   24.2733 H   0  0  0  0  0  0
    9.5007    3.0997   25.4694 H   0  0  0  0  0  0
    9.6783    2.9322   23.7172 H   0  0  0  0  0  0
   12.5542    3.3429   27.1909 H   0  0  0  0  0  0
   11.5698    4.0695   25.8985 H   0  0  0  0  0  0
   10.7909    3.1023   27.1733 H   0  0  0  0  0  0
  1  3  1  0  0  0
  1 10  1  0  0  0
  1 17  1  0  0  0
  1 24  1  0  0  0
  2  6  1  0  0  0
  2  7  2  0  0  0
  3  4  1  0  0  0
  3 25  1  0  0  0
  3 26  1  0  0  0
  4 11  2  0  0  0
  4 12  1  0  0  0
  5  6  2  0  0  0
  5 12  1  0  0  0
  5 13  1  0  0  0
  6 27  1  0  0  0
  7 16  1  0  0  0
  7 28  1  0  0  0
  8 15  1  0  0  0
  8 16  2  0  0  0
  8 29  1  0  0  0
  9 13  2  0  0  0
  9 14  1  0  0  0
  9 30  1  0  0  0
 10 19  1  0  0  0
 10 31  1  0  0  0
 10 32  1  0  0  0
 12 33  1  0  0  0
 13 16  1  0  0  0
 14 15  2  0  0  0
 14 34  1  0  0  0
 15 35  1  0  0  0
 17 18  1  0  0  0
 17 36  1  0  0  0
 17 37  1  0  0  0
 18 20  1  0  0  0
 18 38  1  0  0  0
 18 39  1  0  0  0
 19 20  1  0  0  0
 19 40  1  0  0  0
 19 41  1  0  0  0
 20 21  1  0  0  0
 21 22  2  0  0  0
 21 23  1  0  0  0
 23 42  1  0  0  0
 23 43  1  0  0  0
 23 44  1  0  0  0
M  CHG  1   1   1
M  END
> <s_m_entry_id>
423

> <s_m_entry_name>
7gez.pdb.1_ligand

> <s_pdb_PDB_TITLE>
GROUP DEPOSITION SARS-COV-2 MAIN PROTEASE IN COMPLEX WITH INHIBITORS FROM THE COVID MOONSHOT -- CRYSTAL STRUCTURE OF SARS-COV-2 MAIN PROTEASE IN COMPLEX WITH ALP-POS-6747FA38-1 (MPRO-X11541)

> <s_pdb_PDB_ID>
7GEZ

> <s_m_Source_File>
7gez.pdb.gz

> <s_user_Compound_ID>
ALP-POS-6747fa38-1

> <s_user_Monomer-Dimer>
Monomer

> <s_user_xcode>
Mpro-x11541

$$$$
