7GF0_ligand
                    3D
 Schrodinger Suite 2021-2.
 33 35  0  0  1  0            999 V2000
    6.9614   -2.1497   17.4135 N   0  0  0  0  0  0
    7.4925   -0.8012   24.1145 C   0  0  0  0  0  0
    8.4380   -0.5825   22.9559 C   0  0  0  0  0  0
    8.0409   -1.3972   21.7388 C   0  0  0  0  0  0
    8.3415   -1.4915   19.2890 C   0  0  0  0  0  0
    7.1541   -1.4851   18.5566 C   0  0  0  0  0  0
    9.2642   -2.9266   17.5376 C   0  0  0  0  0  0
   10.7150   -2.3206   19.3886 C   0  0  0  0  0  0
    6.2561   -0.1668   24.1329 C   0  0  0  0  0  0
    7.4127   -2.4464   21.8397 O   0  0  0  0  0  0
    7.8053   -1.6898   25.1362 C   0  0  0  0  0  0
    6.8824   -1.9824   26.1299 C   0  0  0  0  0  0
    5.6370   -1.3721   26.1292 C   0  0  0  0  0  0
    5.3535   -0.4516   25.1391 C   0  0  0  0  0  0
    3.8614    0.4437   25.2089 Cl  0  0  0  0  0  0
    8.4683   -0.9019   20.5578 N   0  0  0  0  0  0
    9.4451   -2.2331   18.7636 C   0  0  0  0  0  0
   11.7094   -3.0365   18.7851 C   0  0  0  0  0  0
   11.5683   -3.6899   17.6206 N   0  0  0  0  0  0
   10.3821   -3.6412   17.0237 C   0  0  0  0  0  0
    7.9890   -2.8449   16.9231 C   0  0  0  0  0  0
    9.4501   -0.8518   23.2580 H   0  0  0  0  0  0
    8.4529    0.4756   22.6948 H   0  0  0  0  0  0
    6.3570   -0.8890   18.9757 H   0  0  0  0  0  0
   10.8880   -1.8242   20.3320 H   0  0  0  0  0  0
    6.0035    0.5462   23.3621 H   0  0  0  0  0  0
    8.7764   -2.1617   25.1629 H   0  0  0  0  0  0
    7.1325   -2.6880   26.9083 H   0  0  0  0  0  0
    4.9137   -1.6201   26.8919 H   0  0  0  0  0  0
    8.9393   -0.0090   20.5254 H   0  0  0  0  0  0
   12.6837   -3.1022   19.2463 H   0  0  0  0  0  0
   10.2941   -4.1866   16.0957 H   0  0  0  0  0  0
    7.8781   -3.3935   15.9995 H   0  0  0  0  0  0
  1  6  1  0  0  0
  1 21  2  0  0  0
  2  3  1  0  0  0
  2  9  1  0  0  0
  2 11  2  0  0  0
  3  4  1  0  0  0
  3 22  1  0  0  0
  3 23  1  0  0  0
  4 10  2  0  0  0
  4 16  1  0  0  0
  5  6  2  0  0  0
  5 16  1  0  0  0
  5 17  1  0  0  0
  6 24  1  0  0  0
  7 17  1  0  0  0
  7 20  2  0  0  0
  7 21  1  0  0  0
  8 17  2  0  0  0
  8 18  1  0  0  0
  8 25  1  0  0  0
  9 14  2  0  0  0
  9 26  1  0  0  0
 11 12  1  0  0  0
 11 27  1  0  0  0
 12 13  2  0  0  0
 12 28  1  0  0  0
 13 14  1  0  0  0
 13 29  1  0  0  0
 14 15  1  0  0  0
 16 30  1  0  0  0
 18 19  2  0  0  0
 18 31  1  0  0  0
 19 20  1  0  0  0
 20 32  1  0  0  0
 21 33  1  0  0  0
M  END
> <s_m_entry_id>
425

> <s_m_entry_name>
7gf0.pdb.1_ligand

> <s_pdb_PDB_TITLE>
GROUP DEPOSITION SARS-COV-2 MAIN PROTEASE IN COMPLEX WITH INHIBITORS FROM THE COVID MOONSHOT -- CRYSTAL STRUCTURE OF SARS-COV-2 MAIN PROTEASE IN COMPLEX WITH MAT-POS-BB423B95-1 (MPRO-X11542)

> <s_pdb_PDB_ID>
7GF0

> <s_m_Source_File>
7gf0.pdb.gz

> <s_user_Compound_ID>
MAT-POS-bb423b95-1

> <s_user_Monomer-Dimer>
Monomer

> <s_user_xcode>
Mpro-x11542

$$$$
