7GF1_ligand
                    3D
 Schrodinger Suite 2021-2.
 35 37  0  0  1  0            999 V2000
    6.9158   -2.0947   17.4521 N   0  0  0  0  0  0
    7.5874   -0.7049   24.1226 C   0  0  0  0  0  0
    8.5394   -0.5088   22.9668 C   0  0  0  0  0  0
    8.0542   -1.2819   21.7584 C   0  0  0  0  0  0
    8.2537   -1.4120   19.3359 C   0  0  0  0  0  0
    7.0737   -1.4133   18.5919 C   0  0  0  0  0  0
    9.1796   -2.8536   17.6628 C   0  0  0  0  0  0
   10.9369   -3.5386   20.4107 C   0  0  0  0  0  0
    6.3598   -0.0527   24.1321 C   0  0  0  0  0  0
    7.4572   -2.3448   21.8732 O   0  0  0  0  0  0
    7.8833   -1.5955   25.1454 C   0  0  0  0  0  0
    6.9619   -1.8574   26.1454 C   0  0  0  0  0  0
    5.7287   -1.2263   26.1407 C   0  0  0  0  0  0
    5.4524   -0.3227   25.1352 C   0  0  0  0  0  0
    3.9111    0.4851   25.1137 Cl  0  0  0  0  0  0
    8.3539   -0.7280   20.5687 N   0  0  0  0  0  0
    9.3402   -2.1607   18.8585 C   0  0  0  0  0  0
   10.6454   -2.2807   19.6316 C   0  0  0  0  0  0
   11.7147   -3.2430   19.1798 C   0  0  0  0  0  0
    7.9654   -2.7957   17.0060 C   0  0  0  0  0  0
    9.5312   -0.8618   23.2494 H   0  0  0  0  0  0
    8.5976    0.5514   22.7202 H   0  0  0  0  0  0
    6.2601   -0.8212   18.9843 H   0  0  0  0  0  0
    9.9992   -3.4287   17.2577 H   0  0  0  0  0  0
   10.1742   -4.1900   19.9841 H   0  0  0  0  0  0
   11.6221   -3.1301   21.1535 H   0  0  0  0  0  0
    6.1213    0.6606   23.3570 H   0  0  0  0  0  0
    8.8414   -2.0935   25.1674 H   0  0  0  0  0  0
    7.2035   -2.5559   26.9328 H   0  0  0  0  0  0
    5.0070   -1.4455   26.9137 H   0  0  0  0  0  0
    8.6713    0.2297   20.5232 H   0  0  0  0  0  0
   11.0082   -1.3571   20.0825 H   0  0  0  0  0  0
   11.1358   -3.8247   18.4624 H   0  0  0  0  0  0
   12.5837   -2.7648   19.6318 H   0  0  0  0  0  0
    7.8889   -3.3561   16.0860 H   0  0  0  0  0  0
  1  6  1  0  0  0
  1 20  2  0  0  0
  2  3  1  0  0  0
  2  9  1  0  0  0
  2 11  2  0  0  0
  3  4  1  0  0  0
  3 21  1  0  0  0
  3 22  1  0  0  0
  4 10  2  0  0  0
  4 16  1  0  0  0
  5  6  2  0  0  0
  5 16  1  0  0  0
  5 17  1  0  0  0
  6 23  1  0  0  0
  7 17  2  0  0  0
  7 20  1  0  0  0
  7 24  1  0  0  0
  8 18  1  0  0  0
  8 19  1  0  0  0
  8 25  1  0  0  0
  8 26  1  0  0  0
  9 14  2  0  0  0
  9 27  1  0  0  0
 11 12  1  0  0  0
 11 28  1  0  0  0
 12 13  2  0  0  0
 12 29  1  0  0  0
 13 14  1  0  0  0
 13 30  1  0  0  0
 14 15  1  0  0  0
 16 31  1  0  0  0
 17 18  1  0  0  0
 18 19  1  0  0  0
 18 32  1  0  0  0
 19 33  1  0  0  0
 19 34  1  0  0  0
 20 35  1  0  0  0
M  END
> <s_m_entry_id>
427

> <s_m_entry_name>
7gf1.pdb.1_ligand

> <s_pdb_PDB_TITLE>
GROUP DEPOSITION SARS-COV-2 MAIN PROTEASE IN COMPLEX WITH INHIBITORS FROM THE COVID MOONSHOT -- CRYSTAL STRUCTURE OF SARS-COV-2 MAIN PROTEASE IN COMPLEX WITH ALP-POS-95B75B4D-5 (MPRO-X11543)

> <s_pdb_PDB_ID>
7GF1

> <s_m_Source_File>
7gf1.pdb.gz

> <s_user_Compound_ID>
ALP-POS-95b75b4d-5

> <s_user_Monomer-Dimer>
Monomer

> <s_user_xcode>
Mpro-x11543

$$$$
