7GF2_ligand
                    3D
 Schrodinger Suite 2021-2.
 33 35  0  0  1  0            999 V2000
    6.9456   -2.0993   17.3575 N   0  0  0  0  0  0
    7.6719   -0.6671   23.9868 C   0  0  0  0  0  0
    8.5641   -0.4078   22.7933 C   0  0  0  0  0  0
    8.1574   -1.2770   21.6194 C   0  0  0  0  0  0
    8.3907   -1.4824   19.1765 C   0  0  0  0  0  0
    7.1803   -1.4404   18.4953 C   0  0  0  0  0  0
    9.2412   -2.9712   17.4370 C   0  0  0  0  0  0
   10.7215   -2.4116   19.2648 C   0  0  0  0  0  0
    6.4487   -0.0140   24.0949 C   0  0  0  0  0  0
    7.5166   -2.3154   21.7725 O   0  0  0  0  0  0
    8.0150   -1.6090   24.9468 C   0  0  0  0  0  0
    7.1414   -1.9244   25.9763 C   0  0  0  0  0  0
    5.9046   -1.3014   26.0599 C   0  0  0  0  0  0
    5.5834   -0.3446   25.1162 C   0  0  0  0  0  0
    4.0329    0.4565   25.1982 Cl  0  0  0  0  0  0
    8.5809   -0.8447   20.4208 N   0  0  0  0  0  0
    9.4594   -2.2692   18.6469 C   0  0  0  0  0  0
   11.6754   -3.1945   18.6838 C   0  0  0  0  0  0
   11.3779   -3.8383   17.4859 C   0  0  0  0  0  0
   10.2142   -3.7534   16.8584 N   0  0  0  0  0  0
    7.9370   -2.8228   16.8633 C   0  0  0  0  0  0
    9.5991   -0.6205   23.0609 H   0  0  0  0  0  0
    8.4940    0.6421   22.5089 H   0  0  0  0  0  0
    6.4051   -0.8315   18.9364 H   0  0  0  0  0  0
   10.9285   -1.9014   20.1939 H   0  0  0  0  0  0
    6.1792    0.7494   23.3801 H   0  0  0  0  0  0
    8.9724   -2.1063   24.8974 H   0  0  0  0  0  0
    7.4226   -2.6578   26.7176 H   0  0  0  0  0  0
    5.2180   -1.5679   26.8498 H   0  0  0  0  0  0
    9.0939    0.0223   20.3491 H   0  0  0  0  0  0
   12.6416   -3.3064   19.1533 H   0  0  0  0  0  0
   12.1216   -4.4574   17.0064 H   0  0  0  0  0  0
    7.7988   -3.3711   15.9431 H   0  0  0  0  0  0
  1  6  1  0  0  0
  1 21  2  0  0  0
  2  3  1  0  0  0
  2  9  1  0  0  0
  2 11  2  0  0  0
  3  4  1  0  0  0
  3 22  1  0  0  0
  3 23  1  0  0  0
  4 10  2  0  0  0
  4 16  1  0  0  0
  5  6  2  0  0  0
  5 16  1  0  0  0
  5 17  1  0  0  0
  6 24  1  0  0  0
  7 17  1  0  0  0
  7 20  2  0  0  0
  7 21  1  0  0  0
  8 17  2  0  0  0
  8 18  1  0  0  0
  8 25  1  0  0  0
  9 14  2  0  0  0
  9 26  1  0  0  0
 11 12  1  0  0  0
 11 27  1  0  0  0
 12 13  2  0  0  0
 12 28  1  0  0  0
 13 14  1  0  0  0
 13 29  1  0  0  0
 14 15  1  0  0  0
 16 30  1  0  0  0
 18 19  2  0  0  0
 18 31  1  0  0  0
 19 20  1  0  0  0
 19 32  1  0  0  0
 21 33  1  0  0  0
M  END
> <s_m_entry_id>
429

> <s_m_entry_name>
7gf2.pdb.1_ligand

> <s_pdb_PDB_TITLE>
GROUP DEPOSITION SARS-COV-2 MAIN PROTEASE IN COMPLEX WITH INHIBITORS FROM THE COVID MOONSHOT -- CRYSTAL STRUCTURE OF SARS-COV-2 MAIN PROTEASE IN COMPLEX WITH MIC-UNK-08CD9C58-1 (MPRO-X11548)

> <s_pdb_PDB_ID>
7GF2

> <s_m_Source_File>
7gf2.pdb.gz

> <s_user_Compound_ID>
MIC-UNK-08cd9c58-1

> <s_user_Monomer-Dimer>
Monomer

> <s_user_xcode>
Mpro-x11548

$$$$
