7GF3_ligand
                    3D
 Schrodinger Suite 2021-2.
 35 36  0  0  1  0            999 V2000
    8.1859   -0.9954   20.6610 N   0  0  0  0  0  0
    7.2170   -1.3808   18.5188 C   0  0  0  0  0  0
    8.3298   -1.4864   19.3484 C   0  0  0  0  0  0
    8.2618   -1.5380   21.8894 C   0  0  0  0  0  0
    8.5960   -0.5484   23.0065 C   0  0  2  0  0  0
   10.0656   -0.5974   23.4171 C   0  0  0  0  0  0
    7.9412   -1.6030   25.2240 C   0  0  0  0  0  0
    5.4947   -0.3577   25.1644 C   0  0  0  0  0  0
    3.9860    0.5108   25.1645 Cl  0  0  0  0  0  0
    5.7800   -1.2194   26.2042 C   0  0  0  0  0  0
    7.0214   -1.8342   26.2367 C   0  0  0  0  0  0
    6.3949   -0.1283   24.1443 C   0  0  0  0  0  0
    7.6312   -0.7621   24.1634 C   0  0  0  0  0  0
   10.8923   -0.3097   22.2945 O   0  0  0  0  0  0
    7.9910   -2.7093   22.1154 O   0  0  0  0  0  0
    9.3716   -2.3496   18.9640 C   0  0  0  0  0  0
   10.6311   -2.5002   19.7791 C   0  0  0  0  0  0
    7.0693   -2.0699   17.3866 N   0  0  0  0  0  0
    8.0807   -2.8636   17.0155 C   0  0  0  0  0  0
    9.2307   -3.0272   17.7612 C   0  0  0  0  0  0
    7.9760   -0.0195   20.8150 H   0  0  0  0  0  0
    6.4106   -0.7114   18.7795 H   0  0  0  0  0  0
    8.4075    0.4510   22.6143 H   0  0  0  0  0  0
   10.3032   -1.5907   23.7979 H   0  0  0  0  0  0
   10.2484    0.1380   24.2006 H   0  0  0  0  0  0
    8.9101   -2.0791   25.2554 H   0  0  0  0  0  0
    5.0423   -1.4028   26.9714 H   0  0  0  0  0  0
    7.2720   -2.4951   27.0533 H   0  0  0  0  0  0
    6.1369    0.5410   23.3369 H   0  0  0  0  0  0
   11.8146   -0.3421   22.5590 H   0  0  0  0  0  0
   11.2943   -3.2169   19.2948 H   0  0  0  0  0  0
   11.1328   -1.5355   19.8551 H   0  0  0  0  0  0
   10.3780   -2.8571   20.7774 H   0  0  0  0  0  0
    8.0214   -3.4166   16.0897 H   0  0  0  0  0  0
   10.0186   -3.6786   17.4129 H   0  0  0  0  0  0
  1  3  1  0  0  0
  1  4  1  0  0  0
  1 21  1  0  0  0
  2  3  1  0  0  0
  2 18  2  0  0  0
  2 22  1  0  0  0
  3 16  2  0  0  0
  4  5  1  0  0  0
  4 15  2  0  0  0
  5  6  1  0  0  0
  5 13  1  0  0  0
  5 23  1  0  0  0
  6 14  1  0  0  0
  6 24  1  0  0  0
  6 25  1  0  0  0
  7 11  1  0  0  0
  7 13  2  0  0  0
  7 26  1  0  0  0
  8  9  1  0  0  0
  8 10  1  0  0  0
  8 12  2  0  0  0
 10 11  2  0  0  0
 10 27  1  0  0  0
 11 28  1  0  0  0
 12 13  1  0  0  0
 12 29  1  0  0  0
 14 30  1  0  0  0
 16 17  1  0  0  0
 16 20  1  0  0  0
 17 31  1  0  0  0
 17 32  1  0  0  0
 17 33  1  0  0  0
 18 19  1  0  0  0
 19 20  2  0  0  0
 19 34  1  0  0  0
 20 35  1  0  0  0
M  END
> <s_m_entry_id>
524

> <s_m_entry_name>
7gf3.pdb.1_ligand

> <s_pdb_PDB_TITLE>
GROUP DEPOSITION SARS-COV-2 MAIN PROTEASE IN COMPLEX WITH INHIBITORS FROM THE COVID MOONSHOT -- CRYSTAL STRUCTURE OF SARS-COV-2 MAIN PROTEASE IN COMPLEX WITH EDG-MED-0DA5AD92-5 (MPRO-X11557)

> <s_pdb_PDB_ID>
7GF3

> <s_m_Source_File>
7gf3.pdb.gz

> <s_user_Compound_ID>
EDG-MED-0da5ad92-5

> <s_user_Monomer-Dimer>
Monomer

> <s_user_xcode>
Mpro-x11557

$$$$
