7GF4_ligand
                    3D
 Schrodinger Suite 2021-2.
 28 28  0  0  1  0            999 V2000
    6.9901   -1.9463   17.8102 N   0  0  0  0  0  0
    8.0665   -1.4575   19.9120 C   0  0  0  0  0  0
    6.9730   -1.4244   19.0433 C   0  0  0  0  0  0
    8.1303   -2.5114   17.4000 C   0  0  0  0  0  0
    9.2607   -2.6093   18.1878 C   0  0  0  0  0  0
    9.2456   -2.0965   19.4813 C   0  0  0  0  0  0
    7.0434   -2.4431   22.4703 O   0  0  0  0  0  0
    7.4865   -1.3039   22.3336 C   0  0  0  0  0  0
    7.4175   -0.3002   23.4835 C   0  0  1  0  0  0
    6.5415   -0.7752   24.5256 O   0  0  0  0  0  0
    5.2729   -0.2752   24.5186 C   0  0  0  0  0  0
    5.2442    0.7674   25.3547 F   0  0  0  0  0  0
    4.4767   -1.1799   25.1182 F   0  0  0  0  0  0
    8.7651   -0.0898   24.1411 C   0  0  0  0  0  0
    8.0230   -0.8256   21.1812 N   0  0  0  0  0  0
   10.4191   -2.3131   20.4032 C   0  0  0  0  0  0
    6.0792   -0.9450   19.4145 H   0  0  0  0  0  0
    8.2013   -2.9225   16.4038 H   0  0  0  0  0  0
   10.1506   -3.0820   17.7991 H   0  0  0  0  0  0
    7.0469    0.6535   23.1078 H   0  0  0  0  0  0
    4.9311   -0.0168   23.5164 H   0  0  0  0  0  0
    8.6655    0.6315   24.9522 H   0  0  0  0  0  0
    9.1269   -1.0372   24.5405 H   0  0  0  0  0  0
    9.4743    0.2880   23.4046 H   0  0  0  0  0  0
    8.4245    0.0932   21.3019 H   0  0  0  0  0  0
   11.2170   -2.8227   19.8631 H   0  0  0  0  0  0
   10.7819   -1.3501   20.7628 H   0  0  0  0  0  0
   10.1079   -2.9231   21.2512 H   0  0  0  0  0  0
  1  3  1  0  0  0
  1  4  2  0  0  0
  2  3  2  0  0  0
  2  6  1  0  0  0
  2 15  1  0  0  0
  3 17  1  0  0  0
  4  5  1  0  0  0
  4 18  1  0  0  0
  5  6  2  0  0  0
  5 19  1  0  0  0
  6 16  1  0  0  0
  7  8  2  0  0  0
  8  9  1  0  0  0
  8 15  1  0  0  0
  9 10  1  0  0  0
  9 14  1  0  0  0
  9 20  1  0  0  0
 10 11  1  0  0  0
 11 12  1  0  0  0
 11 13  1  0  0  0
 11 21  1  0  0  0
 14 22  1  0  0  0
 14 23  1  0  0  0
 14 24  1  0  0  0
 15 25  1  0  0  0
 16 26  1  0  0  0
 16 27  1  0  0  0
 16 28  1  0  0  0
M  END
> <s_m_entry_id>
526

> <s_m_entry_name>
7gf4.pdb.1_ligand

> <s_pdb_PDB_TITLE>
GROUP DEPOSITION SARS-COV-2 MAIN PROTEASE IN COMPLEX WITH INHIBITORS FROM THE COVID MOONSHOT -- CRYSTAL STRUCTURE OF SARS-COV-2 MAIN PROTEASE IN COMPLEX WITH MAT-POS-590AC91E-17 (MPRO-X11560)

> <s_pdb_PDB_ID>
7GF4

> <s_m_Source_File>
7gf4.pdb.gz

> <s_user_Compound_ID>
MAT-POS-590ac91e-17

> <s_user_Monomer-Dimer>
Monomer

> <s_user_xcode>
Mpro-x11560

$$$$
