7GF5_ligand
                    3D
 Schrodinger Suite 2021-2.
 44 45  0  0  1  0            999 V2000
    6.9182   -2.2212   17.3991 N   0  0  0  0  0  0
    8.2690   -1.4535   24.7334 C   0  0  0  0  0  0
    7.5969   -1.8681   25.8755 C   0  0  0  0  0  0
    6.3339   -1.3645   26.1471 C   0  0  0  0  0  0
    5.7919   -0.4165   25.3031 C   0  0  0  0  0  0
    6.4697    0.0304   24.1905 C   0  0  0  0  0  0
    8.4212   -0.1037   22.6028 C   0  0  0  0  0  0
    7.2103   -1.5161   18.4984 C   0  0  0  0  0  0
    9.1403   -3.1113   17.4565 C   0  0  0  0  0  0
   10.7834   -2.5674   19.2891 C   0  0  0  0  0  0
    7.4329   -2.1128   21.7189 O   0  0  0  0  0  0
    8.1337   -1.1228   21.5170 C   0  0  0  0  0  0
    8.6966   -0.8385   20.3264 N   0  0  0  0  0  0
    8.4499   -1.5642   19.1366 C   0  0  0  0  0  0
    9.4503   -2.3918   18.6068 C   0  0  0  0  0  0
    7.8835   -3.0001   16.8981 C   0  0  0  0  0  0
    7.7173   -0.4975   23.8807 C   0  0  0  0  0  0
    4.2209    0.2577   25.6620 Cl  0  0  0  0  0  0
    9.4250   -2.0349   24.2798 O   0  0  0  0  0  0
   10.6081   -1.9643   25.0949 C   0  0  0  0  0  0
   11.8002   -2.1891   24.1963 C   0  0  0  0  0  0
   12.0006   -1.0776   23.1650 C   0  0  0  0  0  0
   13.2113   -1.2774   22.2805 C   0  0  0  0  0  0
    8.0581   -2.5785   26.5455 H   0  0  0  0  0  0
    5.7871   -1.7145   27.0102 H   0  0  0  0  0  0
    6.0315    0.7901   23.5601 H   0  0  0  0  0  0
    8.0700    0.8772   22.2823 H   0  0  0  0  0  0
    9.4956   -0.0554   22.7802 H   0  0  0  0  0  0
    6.4668   -0.8671   18.9371 H   0  0  0  0  0  0
    9.8820   -3.7532   17.0048 H   0  0  0  0  0  0
   10.8317   -1.9208   20.1653 H   0  0  0  0  0  0
   10.9000   -3.6062   19.5979 H   0  0  0  0  0  0
   11.5836   -2.3023   18.5981 H   0  0  0  0  0  0
    9.3402   -0.0644   20.2440 H   0  0  0  0  0  0
    7.6985   -3.5852   16.0093 H   0  0  0  0  0  0
   10.5731   -2.7461   25.8536 H   0  0  0  0  0  0
   10.6773   -0.9759   25.5491 H   0  0  0  0  0  0
   11.6911   -3.1441   23.6824 H   0  0  0  0  0  0
   12.6994   -2.2842   24.8051 H   0  0  0  0  0  0
   12.0816   -0.1191   23.6776 H   0  0  0  0  0  0
   11.1087   -0.9956   22.5439 H   0  0  0  0  0  0
   13.2873   -0.4497   21.5754 H   0  0  0  0  0  0
   14.1099   -1.3130   22.8964 H   0  0  0  0  0  0
   13.1103   -2.2136   21.7316 H   0  0  0  0  0  0
  1  8  1  0  0  0
  1 16  2  0  0  0
  2  3  1  0  0  0
  2 17  2  0  0  0
  2 19  1  0  0  0
  3  4  2  0  0  0
  3 24  1  0  0  0
  4  5  1  0  0  0
  4 25  1  0  0  0
  5  6  2  0  0  0
  5 18  1  0  0  0
  6 17  1  0  0  0
  6 26  1  0  0  0
  7 12  1  0  0  0
  7 17  1  0  0  0
  7 27  1  0  0  0
  7 28  1  0  0  0
  8 14  2  0  0  0
  8 29  1  0  0  0
  9 15  2  0  0  0
  9 16  1  0  0  0
  9 30  1  0  0  0
 10 15  1  0  0  0
 10 31  1  0  0  0
 10 32  1  0  0  0
 10 33  1  0  0  0
 11 12  2  0  0  0
 12 13  1  0  0  0
 13 14  1  0  0  0
 13 34  1  0  0  0
 14 15  1  0  0  0
 16 35  1  0  0  0
 19 20  1  0  0  0
 20 21  1  0  0  0
 20 36  1  0  0  0
 20 37  1  0  0  0
 21 22  1  0  0  0
 21 38  1  0  0  0
 21 39  1  0  0  0
 22 23  1  0  0  0
 22 40  1  0  0  0
 22 41  1  0  0  0
 23 42  1  0  0  0
 23 43  1  0  0  0
 23 44  1  0  0  0
M  END
> <s_m_entry_id>
528

> <s_m_entry_name>
7gf5.pdb.1_ligand

> <s_pdb_PDB_TITLE>
GROUP DEPOSITION SARS-COV-2 MAIN PROTEASE IN COMPLEX WITH INHIBITORS FROM THE COVID MOONSHOT -- CRYSTAL STRUCTURE OF SARS-COV-2 MAIN PROTEASE IN COMPLEX WITH EDG-MED-0DA5AD92-7 (MPRO-X11562)

> <s_pdb_PDB_ID>
7GF5

> <s_m_Source_File>
7gf5.pdb.gz

> <s_user_Compound_ID>
EDG-MED-0da5ad92-7

> <s_user_Monomer-Dimer>
Monomer

> <s_user_xcode>
Mpro-x11562

$$$$
