7GF6_ligand
                    3D
 Schrodinger Suite 2021-2.
 44 46  0  0  1  0            999 V2000
    7.0270   -2.1401   17.3291 N   0  0  0  0  0  0
    6.9500   -4.4631   25.8702 C   0  0  0  0  0  0
    8.1306   -5.1926   25.9502 C   0  0  0  0  0  0
    8.1680   -6.4794   26.4367 C   0  0  0  0  0  0
    6.8672   -3.0425   25.4264 C   0  0  0  0  0  0
    5.9750   -2.1607   26.0389 C   0  0  0  0  0  0
    6.7404   -0.3659   24.6172 C   0  0  0  0  0  0
    8.1627   -1.5014   21.5473 C   0  0  0  0  0  0
    7.2928   -1.4881   18.4669 C   0  0  0  0  0  0
    9.2434   -3.0505   17.4106 C   0  0  0  0  0  0
    7.6900   -2.5535   24.4102 C   0  0  0  0  0  0
    7.4782   -2.5146   21.5576 O   0  0  0  0  0  0
    8.7012   -0.9900   20.4202 N   0  0  0  0  0  0
    8.5082   -1.5869   19.1470 C   0  0  0  0  0  0
    9.5213   -2.3921   18.6036 C   0  0  0  0  0  0
   10.8439   -2.5867   19.3007 C   0  0  0  0  0  0
    8.0011   -2.9046   16.8210 C   0  0  0  0  0  0
    8.4702   -0.7454   22.8245 C   0  0  0  0  0  0
    7.6253   -1.2299   23.9853 C   0  0  0  0  0  0
    5.9425   -0.8401   25.6370 C   0  0  0  0  0  0
    4.9439    0.2823   26.5168 Cl  0  0  0  0  0  0
    5.7909   -5.1121   26.2993 C   0  0  0  0  0  0
    5.8395   -6.4028   26.8030 C   0  0  0  0  0  0
    9.2896   -4.6130   25.5953 F   0  0  0  0  0  0
    9.3449   -7.1333   26.4686 F   0  0  0  0  0  0
    7.0376   -7.1142   26.9064 C   0  0  0  0  0  0
    7.0787   -8.4561   27.5922 C   0  0  0  0  0  0
    5.3178   -2.5134   26.8201 H   0  0  0  0  0  0
    6.6816    0.6675   24.3088 H   0  0  0  0  0  0
    6.5463   -0.8434   18.9068 H   0  0  0  0  0  0
    9.9961   -3.6723   16.9489 H   0  0  0  0  0  0
    8.4023   -3.2081   23.9301 H   0  0  0  0  0  0
    9.2648   -0.1530   20.4646 H   0  0  0  0  0  0
   10.8663   -1.9890   20.2119 H   0  0  0  0  0  0
   10.9702   -3.6393   19.5540 H   0  0  0  0  0  0
   11.6526   -2.2727   18.6408 H   0  0  0  0  0  0
    7.8372   -3.4484   15.9024 H   0  0  0  0  0  0
    8.2943    0.3187   22.6672 H   0  0  0  0  0  0
    9.5256   -0.8630   23.0703 H   0  0  0  0  0  0
    4.8372   -4.6085   26.2418 H   0  0  0  0  0  0
    4.9325   -6.8892   27.1304 H   0  0  0  0  0  0
    6.0679   -8.7525   27.8725 H   0  0  0  0  0  0
    7.4997   -9.1985   26.9142 H   0  0  0  0  0  0
    7.6982   -8.3888   28.4865 H   0  0  0  0  0  0
  1  9  1  0  0  0
  1 17  2  0  0  0
  2  3  1  0  0  0
  2  5  1  0  0  0
  2 22  2  0  0  0
  3  4  2  0  0  0
  3 24  1  0  0  0
  4 25  1  0  0  0
  4 26  1  0  0  0
  5  6  1  0  0  0
  5 11  2  0  0  0
  6 20  2  0  0  0
  6 28  1  0  0  0
  7 19  2  0  0  0
  7 20  1  0  0  0
  7 29  1  0  0  0
  8 12  2  0  0  0
  8 13  1  0  0  0
  8 18  1  0  0  0
  9 14  2  0  0  0
  9 30  1  0  0  0
 10 15  2  0  0  0
 10 17  1  0  0  0
 10 31  1  0  0  0
 11 19  1  0  0  0
 11 32  1  0  0  0
 13 14  1  0  0  0
 13 33  1  0  0  0
 14 15  1  0  0  0
 15 16  1  0  0  0
 16 34  1  0  0  0
 16 35  1  0  0  0
 16 36  1  0  0  0
 17 37  1  0  0  0
 18 19  1  0  0  0
 18 38  1  0  0  0
 18 39  1  0  0  0
 20 21  1  0  0  0
 22 23  1  0  0  0
 22 40  1  0  0  0
 23 26  2  0  0  0
 23 41  1  0  0  0
 26 27  1  0  0  0
 27 42  1  0  0  0
 27 43  1  0  0  0
 27 44  1  0  0  0
M  END
> <s_m_entry_id>
530

> <s_m_entry_name>
7gf6.pdb.1_ligand

> <s_pdb_PDB_TITLE>
GROUP DEPOSITION SARS-COV-2 MAIN PROTEASE IN COMPLEX WITH INHIBITORS FROM THE COVID MOONSHOT -- CRYSTAL STRUCTURE OF SARS-COV-2 MAIN PROTEASE IN COMPLEX WITH MAT-POS-F42F3716-6 (MPRO-X11564)

> <s_pdb_PDB_ID>
7GF6

> <s_m_Source_File>
7gf6.pdb.gz

> <s_user_Compound_ID>
MAT-POS-f42f3716-6

> <s_user_Monomer-Dimer>
Monomer

> <s_user_xcode>
Mpro-x11564

$$$$
