7GFA_ligand
                    3D
 Schrodinger Suite 2021-2.
 38 40  0  0  1  0            999 V2000
    7.5651   -0.3868   23.8657 C   0  0  0  0  0  0
    9.2224   -2.9632   17.4801 C   0  0  0  0  0  0
    7.9779   -2.9782   16.8064 C   0  0  0  0  0  0
    7.0141   -1.5720   18.3228 C   0  0  0  0  0  0
   10.5460   -2.2114   19.3814 C   0  0  0  0  0  0
   11.6030   -2.9506   18.9344 C   0  0  0  0  0  0
   11.5065   -3.6886   17.7666 C   0  0  0  0  0  0
   10.3476   -3.7082   17.0508 C   0  0  0  0  0  0
    7.3536   -1.7487   25.8632 C   0  0  0  0  0  0
    8.3019   -0.0520   22.5901 C   0  0  0  0  0  0
    8.1052   -1.2900   24.7832 C   0  0  0  0  0  0
    9.9750   -2.6771   25.3421 C   0  0  0  0  0  0
    7.8793   -1.0455   21.5239 C   0  0  0  0  0  0
    6.2785    0.0971   24.0844 C   0  0  0  0  0  0
    5.5455   -0.3629   25.1577 C   0  0  0  0  0  0
    6.0618   -1.2861   26.0453 C   0  0  0  0  0  0
    8.1696   -1.4627   19.0963 C   0  0  0  0  0  0
    9.3227   -2.1831   18.6666 C   0  0  0  0  0  0
    6.9054   -2.3042   17.2056 N   0  0  0  0  0  0
    8.2620   -0.7046   20.2738 N   0  0  0  0  0  0
    7.2780   -2.0838   21.7986 O   0  0  0  0  0  0
    9.3991   -1.6523   24.5316 O   0  0  0  0  0  0
    3.9171    0.2107   25.3737 Cl  0  0  0  0  0  0
    7.8575   -3.5643   15.9073 H   0  0  0  0  0  0
    6.1186   -1.0422   18.6121 H   0  0  0  0  0  0
   10.6352   -1.6371   20.2917 H   0  0  0  0  0  0
   12.5272   -2.9642   19.4931 H   0  0  0  0  0  0
   12.3552   -4.2563   17.4148 H   0  0  0  0  0  0
   10.2918   -4.2990   16.1484 H   0  0  0  0  0  0
    7.7796   -2.4619   26.5534 H   0  0  0  0  0  0
    9.3755   -0.1351   22.7586 H   0  0  0  0  0  0
    8.0370    0.9564   22.2720 H   0  0  0  0  0  0
   11.0027   -2.8564   25.0263 H   0  0  0  0  0  0
    9.9657   -2.3636   26.3860 H   0  0  0  0  0  0
    9.3968   -3.5948   25.2338 H   0  0  0  0  0  0
    5.8565    0.8313   23.4142 H   0  0  0  0  0  0
    5.4707   -1.6472   26.8738 H   0  0  0  0  0  0
    8.6749    0.2009   20.1013 H   0  0  0  0  0  0
  1 10  1  0  0  0
  1 11  1  0  0  0
  1 14  2  0  0  0
  2  3  1  0  0  0
  2  8  1  0  0  0
  2 18  2  0  0  0
  3 19  2  0  0  0
  3 24  1  0  0  0
  4 17  2  0  0  0
  4 19  1  0  0  0
  4 25  1  0  0  0
  5  6  2  0  0  0
  5 18  1  0  0  0
  5 26  1  0  0  0
  6  7  1  0  0  0
  6 27  1  0  0  0
  7  8  2  0  0  0
  7 28  1  0  0  0
  8 29  1  0  0  0
  9 11  2  0  0  0
  9 16  1  0  0  0
  9 30  1  0  0  0
 10 13  1  0  0  0
 10 31  1  0  0  0
 10 32  1  0  0  0
 11 22  1  0  0  0
 12 22  1  0  0  0
 12 33  1  0  0  0
 12 34  1  0  0  0
 12 35  1  0  0  0
 13 20  1  0  0  0
 13 21  2  0  0  0
 14 15  1  0  0  0
 14 36  1  0  0  0
 15 16  2  0  0  0
 15 23  1  0  0  0
 16 37  1  0  0  0
 17 18  1  0  0  0
 17 20  1  0  0  0
 20 38  1  0  0  0
M  END
> <s_m_entry_id>
532

> <s_m_entry_name>
7gfa.pdb.1_ligand

> <s_pdb_PDB_TITLE>
GROUP DEPOSITION SARS-COV-2 MAIN PROTEASE IN COMPLEX WITH INHIBITORS FROM THE COVID MOONSHOT -- CRYSTAL STRUCTURE OF SARS-COV-2 MAIN PROTEASE IN COMPLEX WITH MAT-POS-3B92565D-1 (MPRO-X11609)

> <s_pdb_PDB_ID>
7GFA

> <s_m_Source_File>
7gfa.pdb.gz

> <s_user_Compound_ID>
MAT-POS-3b92565d-1

> <s_user_Monomer-Dimer>
Monomer

> <s_user_xcode>
Mpro-x11609

$$$$
