7GFB_ligand
                    3D
 Schrodinger Suite 2021-2.
 39 42  0  0  1  0            999 V2000
    6.8822   -1.9429   17.5639 N   0  0  0  0  0  0
    9.9067   -2.1128   24.3465 C   0  0  0  0  0  0
    9.9447   -0.8595   23.5109 C   0  0  0  0  0  0
    8.5165   -0.4559   23.0897 C   0  0  1  0  0  0
    8.0702   -1.2750   21.8773 C   0  0  0  0  0  0
    8.3061   -1.3752   19.4309 C   0  0  0  0  0  0
    7.8668   -2.6661   17.0505 C   0  0  0  0  0  0
   11.3523   -3.7681   17.7700 C   0  0  0  0  0  0
   10.6290   -2.3023   19.5040 C   0  0  0  0  0  0
    7.5092   -0.6582   24.2046 C   0  0  0  0  0  0
    7.3878   -2.2920   21.9834 O   0  0  0  0  0  0
    9.0854   -1.9500   25.5220 O   0  0  0  0  0  0
    7.8141   -1.4898   25.2818 C   0  0  0  0  0  0
    6.8530   -1.8385   26.2184 C   0  0  0  0  0  0
    5.5787   -1.3090   26.1197 C   0  0  0  0  0  0
    6.2326   -0.1093   24.1404 C   0  0  0  0  0  0
    5.2971   -0.4281   25.1010 C   0  0  0  0  0  0
    3.7477    0.3628   25.0622 Cl  0  0  0  0  0  0
    8.4972   -0.7983   20.6981 N   0  0  0  0  0  0
    9.3676   -2.1438   18.8799 C   0  0  0  0  0  0
   11.5868   -3.1034   18.9563 C   0  0  0  0  0  0
   10.1624   -3.6299   17.1165 C   0  0  0  0  0  0
    9.1370   -2.8179   17.6562 C   0  0  0  0  0  0
    7.1122   -1.3164   18.7223 C   0  0  0  0  0  0
   10.9201   -2.3797   24.6463 H   0  0  0  0  0  0
    9.5215   -2.9372   23.7464 H   0  0  0  0  0  0
   10.5498   -1.0345   22.6213 H   0  0  0  0  0  0
   10.3949   -0.0519   24.0881 H   0  0  0  0  0  0
    8.5211    0.5985   22.8134 H   0  0  0  0  0  0
    7.7244   -3.1843   16.1137 H   0  0  0  0  0  0
   12.1150   -4.4064   17.3488 H   0  0  0  0  0  0
   10.8435   -1.7847   20.4273 H   0  0  0  0  0  0
    7.1012   -2.5196   27.0189 H   0  0  0  0  0  0
    4.8208   -1.5884   26.8366 H   0  0  0  0  0  0
    5.9750    0.5661   23.3380 H   0  0  0  0  0  0
    9.0177    0.0665   20.6616 H   0  0  0  0  0  0
   12.5358   -3.2153   19.4596 H   0  0  0  0  0  0
    9.9979   -4.1422   16.1802 H   0  0  0  0  0  0
    6.3389   -0.7112   19.1717 H   0  0  0  0  0  0
  1  7  1  0  0  0
  1 24  2  0  0  0
  2  3  1  0  0  0
  2 12  1  0  0  0
  2 25  1  0  0  0
  2 26  1  0  0  0
  3  4  1  0  0  0
  3 27  1  0  0  0
  3 28  1  0  0  0
  4  5  1  0  0  0
  4 10  1  0  0  0
  4 29  1  0  0  0
  5 11  2  0  0  0
  5 19  1  0  0  0
  6 19  1  0  0  0
  6 20  2  0  0  0
  6 24  1  0  0  0
  7 23  2  0  0  0
  7 30  1  0  0  0
  8 21  1  0  0  0
  8 22  2  0  0  0
  8 31  1  0  0  0
  9 20  1  0  0  0
  9 21  2  0  0  0
  9 32  1  0  0  0
 10 13  1  0  0  0
 10 16  2  0  0  0
 12 13  1  0  0  0
 13 14  2  0  0  0
 14 15  1  0  0  0
 14 33  1  0  0  0
 15 17  2  0  0  0
 15 34  1  0  0  0
 16 17  1  0  0  0
 16 35  1  0  0  0
 17 18  1  0  0  0
 19 36  1  0  0  0
 20 23  1  0  0  0
 21 37  1  0  0  0
 22 23  1  0  0  0
 22 38  1  0  0  0
 24 39  1  0  0  0
M  END
> <s_m_entry_id>
534

> <s_m_entry_name>
7gfb.pdb.1_ligand

> <s_pdb_PDB_TITLE>
GROUP DEPOSITION SARS-COV-2 MAIN PROTEASE IN COMPLEX WITH INHIBITORS FROM THE COVID MOONSHOT -- CRYSTAL STRUCTURE OF SARS-COV-2 MAIN PROTEASE IN COMPLEX WITH MAT-POS-B3E365B9-1 (MPRO-X11612)

> <s_pdb_PDB_ID>
7GFB

> <s_m_Source_File>
7gfb.pdb.gz

> <s_user_Compound_ID>
MAT-POS-b3e365b9-1

> <s_user_Monomer-Dimer>
Monomer

> <s_user_xcode>
Mpro-x11612

$$$$
