7GFC_ligand
                    3D
 Schrodinger Suite 2021-2.
 47 50  0  0  1  0            999 V2000
    9.8683    0.1290   20.5789 N   0  0  0  0  0  0
    9.4080    1.8903   25.3261 C   0  0  0  0  0  0
    8.6865    0.9858   24.5334 C   0  0  0  0  0  0
    7.5471    0.3764   25.0688 C   0  0  0  0  0  0
    9.6181    1.7790   22.3802 C   0  0  0  0  0  0
   10.5392    1.2163   21.3061 C   0  0  0  0  0  0
    8.4099   -0.3517   22.4729 C   0  0  0  0  0  0
    8.0513   -1.3266   18.1797 C   0  0  0  0  0  0
    9.9192   -3.2467   17.4293 C   0  0  0  0  0  0
   12.1640   -4.1021   17.4190 C   0  0  0  0  0  0
   10.3372   -2.1627   18.2254 C   0  0  0  0  0  0
    6.4341   -2.6608   17.1183 O   0  0  0  0  0  0
    7.6145   -2.4462   17.4110 C   0  0  0  0  0  0
    8.5870   -3.3419   17.0528 N   0  0  0  0  0  0
   11.6666   -2.0990   18.6418 C   0  0  0  0  0  0
   12.5716   -3.0618   18.2266 C   0  0  0  0  0  0
   10.8408   -4.2105   17.0244 C   0  0  0  0  0  0
    9.3426   -1.1529   18.5712 C   0  0  0  0  0  0
    9.7180    0.1263   19.2461 C   0  0  0  0  0  0
    9.8806    1.1372   18.5736 O   0  0  0  0  0  0
    9.3550   -0.9380   21.4464 C   0  0  0  0  0  0
    9.0988    0.6998   23.2313 N   0  0  0  0  0  0
    8.9985    2.1662   26.6227 C   0  0  0  0  0  0
    7.8723    1.5545   27.1387 C   0  0  0  0  0  0
    7.1343    0.6702   26.3630 C   0  0  0  0  0  0
    5.8770    0.0768   26.8929 C   0  0  0  0  0  0
    5.1071    0.9900   27.4573 F   0  0  0  0  0  0
    6.1143   -0.8396   27.8200 F   0  0  0  0  0  0
    5.1350   -0.5232   25.9466 F   0  0  0  0  0  0
   10.2867    2.3758   24.9278 H   0  0  0  0  0  0
    6.9819   -0.3274   24.4757 H   0  0  0  0  0  0
    8.7860    2.3010   21.9077 H   0  0  0  0  0  0
   10.1689    2.4920   22.9936 H   0  0  0  0  0  0
   10.8083    2.0084   20.6073 H   0  0  0  0  0  0
   11.4485    0.8352   21.7709 H   0  0  0  0  0  0
    8.0826   -1.1362   23.1551 H   0  0  0  0  0  0
    7.5433    0.0740   21.9671 H   0  0  0  0  0  0
    7.3436   -0.5671   18.4776 H   0  0  0  0  0  0
   12.8788   -4.8412   17.0885 H   0  0  0  0  0  0
    8.2792   -4.1114   16.4755 H   0  0  0  0  0  0
   11.9920   -1.2981   19.2891 H   0  0  0  0  0  0
   13.6028   -2.9935   18.5400 H   0  0  0  0  0  0
   10.5218   -5.0367   16.4062 H   0  0  0  0  0  0
   10.1874   -1.4242   21.9552 H   0  0  0  0  0  0
    8.8238   -1.6733   20.8420 H   0  0  0  0  0  0
    9.5605    2.8600   27.2304 H   0  0  0  0  0  0
    7.5607    1.7629   28.1515 H   0  0  0  0  0  0
  1  6  1  0  0  0
  1 19  1  0  0  0
  1 21  1  0  0  0
  2  3  1  0  0  0
  2 23  2  0  0  0
  2 30  1  0  0  0
  3  4  2  0  0  0
  3 22  1  0  0  0
  4 25  1  0  0  0
  4 31  1  0  0  0
  5  6  1  0  0  0
  5 22  1  0  0  0
  5 32  1  0  0  0
  5 33  1  0  0  0
  6 34  1  0  0  0
  6 35  1  0  0  0
  7 21  1  0  0  0
  7 22  1  0  0  0
  7 36  1  0  0  0
  7 37  1  0  0  0
  8 13  1  0  0  0
  8 18  2  0  0  0
  8 38  1  0  0  0
  9 11  1  0  0  0
  9 14  1  0  0  0
  9 17  2  0  0  0
 10 16  2  0  0  0
 10 17  1  0  0  0
 10 39  1  0  0  0
 11 15  2  0  0  0
 11 18  1  0  0  0
 12 13  2  0  0  0
 13 14  1  0  0  0
 14 40  1  0  0  0
 15 16  1  0  0  0
 15 41  1  0  0  0
 16 42  1  0  0  0
 17 43  1  0  0  0
 18 19  1  0  0  0
 19 20  2  0  0  0
 21 44  1  0  0  0
 21 45  1  0  0  0
 23 24  1  0  0  0
 23 46  1  0  0  0
 24 25  2  0  0  0
 24 47  1  0  0  0
 25 26  1  0  0  0
 26 27  1  0  0  0
 26 28  1  0  0  0
 26 29  1  0  0  0
M  END
> <s_m_entry_id>
536

> <s_m_entry_name>
7gfc.pdb.1_ligand

> <s_pdb_PDB_TITLE>
GROUP DEPOSITION SARS-COV-2 MAIN PROTEASE IN COMPLEX WITH INHIBITORS FROM THE COVID MOONSHOT -- CRYSTAL STRUCTURE OF SARS-COV-2 MAIN PROTEASE IN COMPLEX WITH ERI-UCB-A0B0DBCB-4 (MPRO-X11616)

> <s_pdb_PDB_ID>
7GFC

> <s_m_Source_File>
7gfc.pdb.gz

> <s_user_Compound_ID>
ERI-UCB-a0b0dbcb-4

> <s_user_Monomer-Dimer>
Monomer

> <s_user_xcode>
Mpro-x11616

$$$$
