7GFD_ligand
                    3D
 Schrodinger Suite 2021-2.
 43 45  0  0  1  0            999 V2000
    7.1945   -2.1068   17.2334 N   0  0  0  0  0  0
    7.1736   -1.6543   18.4920 C   0  0  0  0  0  0
    8.2167   -2.8912   16.8822 C   0  0  0  0  0  0
    9.2584   -3.2105   17.7271 C   0  0  0  0  0  0
    9.2624   -2.7245   19.0306 C   0  0  0  0  0  0
   10.5204   -2.8159   19.8567 C   0  0  0  0  0  0
    6.3763   -0.7674   24.5047 C   0  0  0  0  0  0
    5.9747   -3.2473   25.6646 C   0  0  0  0  0  0
    4.3065   -5.9289   24.9358 C   0  0  0  0  0  0
    7.0515   -3.0478   24.8156 C   0  0  0  0  0  0
    3.9765   -8.3430   25.6836 O   0  0  0  0  0  0
    4.5940   -7.2889   25.5551 C   0  0  0  0  0  0
    5.8226   -6.9146   25.9548 N   0  0  0  0  0  0
    5.7655   -5.6124   25.2879 C   0  0  2  0  0  0
    5.8035   -4.5015   26.2157 O   0  0  0  0  0  0
    5.0907   -2.2161   25.9479 C   0  0  0  0  0  0
    5.3106   -0.9869   25.3557 C   0  0  0  0  0  0
    4.2019    0.3189   25.6770 Cl  0  0  0  0  0  0
    7.2505   -1.8106   24.2141 C   0  0  0  0  0  0
    8.3773   -1.6251   23.2064 C   0  0  2  0  0  0
    9.0176   -0.2264   23.1785 C   0  0  0  0  0  0
    8.1791   -2.4758   21.9459 C   0  0  0  0  0  0
    8.2893   -3.6996   21.9782 O   0  0  0  0  0  0
    7.8257   -1.7906   20.8212 N   0  0  0  0  0  0
    8.1431   -1.9673   19.4454 C   0  0  0  0  0  0
    6.3734   -1.0075   18.8201 H   0  0  0  0  0  0
    8.2570   -3.3131   15.8889 H   0  0  0  0  0  0
   10.0664   -3.8352   17.3759 H   0  0  0  0  0  0
   10.3395   -2.3895   20.8434 H   0  0  0  0  0  0
   10.8122   -3.8609   19.9610 H   0  0  0  0  0  0
   11.3203   -2.2633   19.3638 H   0  0  0  0  0  0
    6.5272    0.2093   24.0691 H   0  0  0  0  0  0
    3.6867   -5.3845   25.6482 H   0  0  0  0  0  0
    4.2694   -6.0772   23.8566 H   0  0  0  0  0  0
    7.7408   -3.8555   24.6187 H   0  0  0  0  0  0
    6.3794   -7.5357   26.5244 H   0  0  0  0  0  0
    6.4294   -5.5112   24.4293 H   0  0  0  0  0  0
    4.2587   -2.3861   26.6152 H   0  0  0  0  0  0
    9.1698   -2.1899   23.6974 H   0  0  0  0  0  0
    9.8072   -0.2026   22.4276 H   0  0  0  0  0  0
    8.2590    0.5161   22.9310 H   0  0  0  0  0  0
    9.4407   -0.0004   24.1573 H   0  0  0  0  0  0
    7.2211   -0.9846   20.8900 H   0  0  0  0  0  0
  1  2  1  0  0  0
  1  3  2  0  0  0
  2 25  2  0  0  0
  2 26  1  0  0  0
  3  4  1  0  0  0
  3 27  1  0  0  0
  4  5  2  0  0  0
  4 28  1  0  0  0
  5  6  1  0  0  0
  5 25  1  0  0  0
  6 29  1  0  0  0
  6 30  1  0  0  0
  6 31  1  0  0  0
  7 17  1  0  0  0
  7 19  2  0  0  0
  7 32  1  0  0  0
  8 10  2  0  0  0
  8 15  1  0  0  0
  8 16  1  0  0  0
  9 12  1  0  0  0
  9 14  1  0  0  0
  9 33  1  0  0  0
  9 34  1  0  0  0
 10 19  1  0  0  0
 10 35  1  0  0  0
 11 12  2  0  0  0
 12 13  1  0  0  0
 13 14  1  0  0  0
 13 36  1  0  0  0
 14 15  1  0  0  0
 14 37  1  0  0  0
 16 17  2  0  0  0
 16 38  1  0  0  0
 17 18  1  0  0  0
 19 20  1  0  0  0
 20 21  1  0  0  0
 20 22  1  0  0  0
 20 39  1  0  0  0
 21 40  1  0  0  0
 21 41  1  0  0  0
 21 42  1  0  0  0
 22 23  2  0  0  0
 22 24  1  0  0  0
 24 25  1  0  0  0
 24 43  1  0  0  0
M  END
> <s_m_entry_id>
538

> <s_m_entry_name>
7gfd.pdb.1_ligand

> <s_pdb_PDB_TITLE>
GROUP DEPOSITION SARS-COV-2 MAIN PROTEASE IN COMPLEX WITH INHIBITORS FROM THE COVID MOONSHOT -- CRYSTAL STRUCTURE OF SARS-COV-2 MAIN PROTEASE IN COMPLEX WITH TRY-UNI-2EDDB1FF-8 (MPRO-X11641)

> <s_pdb_PDB_ID>
7GFD

> <s_m_Source_File>
7gfd.pdb.gz

> <s_user_Compound_ID>
TRY-UNI-2eddb1ff-8

> <s_user_Monomer-Dimer>
Monomer

> <s_user_xcode>
Mpro-x11641

$$$$
