7GFE_ligand
                    3D
 Schrodinger Suite 2021-2.
 48 51  0  0  1  0            999 V2000
    7.0234   -1.9296   17.3361 N   0  0  0  0  0  0
    5.2870   -4.8954   25.5704 C   0  0  0  0  0  0
    6.5561   -5.1104   26.1107 C   0  0  0  0  0  0
    7.0625   -2.7913   25.6874 C   0  0  0  0  0  0
    6.3266   -1.9608   26.5170 C   0  0  0  0  0  0
    6.0824   -0.6702   26.0962 C   0  0  0  0  0  0
    7.2573   -1.0478   24.0538 C   0  0  0  0  0  0
    8.3703   -1.3038   19.2414 C   0  0  0  0  0  0
    7.9983   -2.7234   16.9151 C   0  0  0  0  0  0
   10.2485   -3.7632   17.1542 C   0  0  0  0  0  0
   10.6245   -2.3445   19.5102 C   0  0  0  0  0  0
    9.4104   -2.1616   18.7982 C   0  0  0  0  0  0
    7.5312   -2.3488   24.4623 C   0  0  0  0  0  0
    7.7015   -2.5147   21.5965 O   0  0  0  0  0  0
    7.9377   -1.3114   21.6874 C   0  0  0  0  0  0
    8.5096   -0.5185   20.5290 C   0  0  0  0  0  0
   11.5849   -3.1974   19.0514 C   0  0  0  0  0  0
   11.3987   -3.9013   17.8744 C   0  0  0  0  0  0
    9.2241   -2.8937   17.5974 C   0  0  0  0  0  0
    7.2282   -1.2423   18.4681 C   0  0  0  0  0  0
    7.7202   -0.5835   22.8022 N   0  0  0  0  0  0
    6.5203   -0.1994   24.8733 C   0  0  0  0  0  0
    5.2721    0.4242   27.1747 Cl  0  0  0  0  0  0
    7.4357   -4.0673   26.1010 O   0  0  0  0  0  0
    4.3971   -5.9572   25.6057 C   0  0  0  0  0  0
    4.7831   -7.1693   26.1496 C   0  0  0  0  0  0
    6.9643   -6.2558   26.6458 N   0  0  0  0  0  0
    6.0860   -7.2590   26.6517 C   0  0  0  0  0  0
    6.4271   -8.4608   27.1669 O   0  0  0  0  0  0
    7.7472   -8.6133   27.7135 C   0  0  0  0  0  0
    5.0352   -3.9333   25.1492 H   0  0  0  0  0  0
    5.9614   -2.3296   27.4642 H   0  0  0  0  0  0
    7.8796   -3.2862   16.0010 H   0  0  0  0  0  0
   10.1147   -4.3198   16.2384 H   0  0  0  0  0  0
   10.7981   -1.8044   20.4292 H   0  0  0  0  0  0
    8.1047   -3.0122   23.8319 H   0  0  0  0  0  0
    7.9750    0.4270   20.4372 H   0  0  0  0  0  0
    9.5633   -0.3116   20.7158 H   0  0  0  0  0  0
   12.5011   -3.3286   19.6078 H   0  0  0  0  0  0
   12.1765   -4.5656   17.5277 H   0  0  0  0  0  0
    6.4645   -0.5757   18.8408 H   0  0  0  0  0  0
    7.9273    0.3965   22.6723 H   0  0  0  0  0  0
    6.2888    0.8108   24.5693 H   0  0  0  0  0  0
    3.3999   -5.8395   25.2080 H   0  0  0  0  0  0
    4.0887   -7.9961   26.1735 H   0  0  0  0  0  0
    7.8711   -9.6297   28.0872 H   0  0  0  0  0  0
    8.4872   -8.4194   26.9371 H   0  0  0  0  0  0
    7.8861   -7.9066   28.5317 H   0  0  0  0  0  0
  1  9  2  0  0  0
  1 20  1  0  0  0
  2  3  1  0  0  0
  2 25  2  0  0  0
  2 31  1  0  0  0
  3 24  1  0  0  0
  3 27  2  0  0  0
  4  5  1  0  0  0
  4 13  2  0  0  0
  4 24  1  0  0  0
  5  6  2  0  0  0
  5 32  1  0  0  0
  6 22  1  0  0  0
  6 23  1  0  0  0
  7 13  1  0  0  0
  7 21  1  0  0  0
  7 22  2  0  0  0
  8 12  1  0  0  0
  8 16  1  0  0  0
  8 20  2  0  0  0
  9 19  1  0  0  0
  9 33  1  0  0  0
 10 18  1  0  0  0
 10 19  2  0  0  0
 10 34  1  0  0  0
 11 12  2  0  0  0
 11 17  1  0  0  0
 11 35  1  0  0  0
 12 19  1  0  0  0
 13 36  1  0  0  0
 14 15  2  0  0  0
 15 16  1  0  0  0
 15 21  1  0  0  0
 16 37  1  0  0  0
 16 38  1  0  0  0
 17 18  2  0  0  0
 17 39  1  0  0  0
 18 40  1  0  0  0
 20 41  1  0  0  0
 21 42  1  0  0  0
 22 43  1  0  0  0
 25 26  1  0  0  0
 25 44  1  0  0  0
 26 28  2  0  0  0
 26 45  1  0  0  0
 27 28  1  0  0  0
 28 29  1  0  0  0
 29 30  1  0  0  0
 30 46  1  0  0  0
 30 47  1  0  0  0
 30 48  1  0  0  0
M  END
> <s_m_entry_id>
540

> <s_m_entry_name>
7gfe.pdb.1_ligand

> <s_pdb_PDB_TITLE>
GROUP DEPOSITION SARS-COV-2 MAIN PROTEASE IN COMPLEX WITH INHIBITORS FROM THE COVID MOONSHOT -- CRYSTAL STRUCTURE OF SARS-COV-2 MAIN PROTEASE IN COMPLEX WITH MAT-POS-6344A35D-1 (MPRO-X11642)

> <s_pdb_PDB_ID>
7GFE

> <s_m_Source_File>
7gfe.pdb.gz

> <s_user_Compound_ID>
MAT-POS-6344a35d-1

> <s_user_Monomer-Dimer>
Monomer

> <s_user_xcode>
Mpro-x11642

$$$$
