7GFF_ligand
                    3D
 Schrodinger Suite 2021-2.
 28 28  0  0  1  0            999 V2000
    6.9600   -1.8612   17.8984 N   0  0  0  0  0  0
    8.2773   -1.6226   19.8994 C   0  0  0  0  0  0
    7.1016   -1.4570   19.1648 C   0  0  0  0  0  0
    8.0102   -2.4499   17.3209 C   0  0  0  0  0  0
    9.2085   -2.6782   17.9663 C   0  0  0  0  0  0
    9.3682   -2.2644   19.2850 C   0  0  0  0  0  0
    6.9619   -2.5059   22.3332 O   0  0  0  0  0  0
    7.7275   -1.5456   22.3156 C   0  0  0  0  0  0
    8.0268   -0.7651   23.5912 C   0  0  2  0  0  0
    7.5682   -1.4955   24.7412 O   0  0  0  0  0  0
    8.4913   -2.2794   25.3294 C   0  0  0  0  0  0
    8.9986   -1.5400   26.3223 F   0  0  0  0  0  0
    7.7671   -3.3265   25.7826 F   0  0  0  0  0  0
    7.3101    0.5662   23.6341 C   0  0  0  0  0  0
    8.4025   -1.1273   21.2195 N   0  0  0  0  0  0
   10.6673   -2.5017   20.0102 C   0  0  0  0  0  0
    6.2799   -0.9737   19.6724 H   0  0  0  0  0  0
    7.9488   -2.7764   16.2933 H   0  0  0  0  0  0
   10.0150   -3.1752   17.4477 H   0  0  0  0  0  0
    9.1013   -0.6007   23.6715 H   0  0  0  0  0  0
    9.2616   -2.5948   24.6257 H   0  0  0  0  0  0
    7.5565    1.0824   24.5619 H   0  0  0  0  0  0
    7.6230    1.1753   22.7860 H   0  0  0  0  0  0
    6.2337    0.4018   23.5852 H   0  0  0  0  0  0
    9.0525   -0.3804   21.4191 H   0  0  0  0  0  0
   11.3666   -3.0106   19.3468 H   0  0  0  0  0  0
   11.0909   -1.5463   20.3199 H   0  0  0  0  0  0
   10.4856   -3.1201   20.8892 H   0  0  0  0  0  0
  1  3  1  0  0  0
  1  4  2  0  0  0
  2  3  2  0  0  0
  2  6  1  0  0  0
  2 15  1  0  0  0
  3 17  1  0  0  0
  4  5  1  0  0  0
  4 18  1  0  0  0
  5  6  2  0  0  0
  5 19  1  0  0  0
  6 16  1  0  0  0
  7  8  2  0  0  0
  8  9  1  0  0  0
  8 15  1  0  0  0
  9 10  1  0  0  0
  9 14  1  0  0  0
  9 20  1  0  0  0
 10 11  1  0  0  0
 11 12  1  0  0  0
 11 13  1  0  0  0
 11 21  1  0  0  0
 14 22  1  0  0  0
 14 23  1  0  0  0
 14 24  1  0  0  0
 15 25  1  0  0  0
 16 26  1  0  0  0
 16 27  1  0  0  0
 16 28  1  0  0  0
M  END
> <s_m_entry_id>
542

> <s_m_entry_name>
7gff.pdb.1_ligand

> <s_pdb_PDB_TITLE>
GROUP DEPOSITION SARS-COV-2 MAIN PROTEASE IN COMPLEX WITH INHIBITORS FROM THE COVID MOONSHOT -- CRYSTAL STRUCTURE OF SARS-COV-2 MAIN PROTEASE IN COMPLEX WITH MAT-POS-5D20D11C-1 (MPRO-X11708)

> <s_pdb_PDB_ID>
7GFF

> <s_m_Source_File>
7gff.pdb.gz

> <s_user_Compound_ID>
MAT-POS-5d20d11c-1

> <s_user_Monomer-Dimer>
Monomer

> <s_user_xcode>
Mpro-x11708

$$$$
