7GFG_ligand
                    3D
 Schrodinger Suite 2021-2.
 43 45  0  0  1  0            999 V2000
    8.4928   -0.7156   20.0084 N   0  0  0  0  0  0
   12.2413   -2.2790   25.8123 N   0  0  0  0  0  0
    8.0371   -1.5671   25.6975 C   0  0  0  0  0  0
    6.8047   -1.1071   26.1330 C   0  0  0  0  0  0
    6.0983   -0.2562   25.3079 C   0  0  0  0  0  0
    6.5698    0.1103   24.0659 C   0  0  0  0  0  0
    7.7984   -0.3717   23.6298 C   0  0  0  0  0  0
    8.0778   -1.0366   21.2449 C   0  0  0  0  0  0
    7.9552   -3.0943   16.6864 C   0  0  0  0  0  0
    9.4202   -2.2828   18.3969 C   0  0  0  0  0  0
    8.5318   -1.2168   24.4514 C   0  0  0  0  0  0
    7.5440   -2.1045   21.5313 O   0  0  0  0  0  0
    8.3385   -1.5212   18.8666 C   0  0  0  0  0  0
   10.7396   -2.3295   19.1243 C   0  0  0  0  0  0
    9.2047   -3.0726   17.2730 C   0  0  0  0  0  0
    6.9118   -2.3863   17.1396 N   0  0  0  0  0  0
    7.1132   -1.6052   18.2095 C   0  0  0  0  0  0
    8.3402    0.0357   22.2836 C   0  0  0  0  0  0
    4.6149    0.4470   25.8887 Cl  0  0  0  0  0  0
    8.6841   -2.3967   26.5787 O   0  0  0  0  0  0
    9.9092   -3.0231   26.1788 C   0  0  0  0  0  0
   11.0642   -2.0886   26.3009 C   0  0  0  0  0  0
   10.9476   -0.9429   26.9859 O   0  0  0  0  0  0
   12.2254   -0.3212   26.9264 N   0  0  0  0  0  0
   12.9285   -1.1635   26.2263 C   0  0  0  0  0  0
   14.3595   -0.9655   25.8745 C   0  0  0  0  0  0
    8.9572    0.1662   19.8446 H   0  0  0  0  0  0
    6.4222   -1.4157   27.0947 H   0  0  0  0  0  0
    5.9856    0.7676   23.4389 H   0  0  0  0  0  0
    7.7789   -3.7056   15.8137 H   0  0  0  0  0  0
    9.4858   -1.6012   24.1216 H   0  0  0  0  0  0
   11.4298   -2.9781   18.5848 H   0  0  0  0  0  0
   11.1578   -1.3247   19.1843 H   0  0  0  0  0  0
   10.5867   -2.7195   20.1306 H   0  0  0  0  0  0
   10.0061   -3.6664   16.8586 H   0  0  0  0  0  0
    6.2722   -1.0244   18.5587 H   0  0  0  0  0  0
    9.4133    0.2101   22.3620 H   0  0  0  0  0  0
    7.8698    0.9676   21.9700 H   0  0  0  0  0  0
    9.8236   -3.3610   25.1460 H   0  0  0  0  0  0
   10.0865   -3.9020   26.7987 H   0  0  0  0  0  0
   14.7114   -0.0247   26.2976 H   0  0  0  0  0  0
   14.9504   -1.7881   26.2775 H   0  0  0  0  0  0
   14.4673   -0.9385   24.7902 H   0  0  0  0  0  0
  1  8  1  0  0  0
  1 13  1  0  0  0
  1 27  1  0  0  0
  2 22  2  0  0  0
  2 25  1  0  0  0
  3  4  1  0  0  0
  3 11  2  0  0  0
  3 20  1  0  0  0
  4  5  2  0  0  0
  4 28  1  0  0  0
  5  6  1  0  0  0
  5 19  1  0  0  0
  6  7  2  0  0  0
  6 29  1  0  0  0
  7 11  1  0  0  0
  7 18  1  0  0  0
  8 12  2  0  0  0
  8 18  1  0  0  0
  9 15  1  0  0  0
  9 16  2  0  0  0
  9 30  1  0  0  0
 10 13  1  0  0  0
 10 14  1  0  0  0
 10 15  2  0  0  0
 11 31  1  0  0  0
 13 17  2  0  0  0
 14 32  1  0  0  0
 14 33  1  0  0  0
 14 34  1  0  0  0
 15 35  1  0  0  0
 16 17  1  0  0  0
 17 36  1  0  0  0
 18 37  1  0  0  0
 18 38  1  0  0  0
 20 21  1  0  0  0
 21 22  1  0  0  0
 21 39  1  0  0  0
 21 40  1  0  0  0
 22 23  1  0  0  0
 23 24  1  0  0  0
 24 25  2  0  0  0
 25 26  1  0  0  0
 26 41  1  0  0  0
 26 42  1  0  0  0
 26 43  1  0  0  0
M  END
> <s_m_entry_id>
544

> <s_m_entry_name>
7gfg.pdb.1_ligand

> <s_pdb_PDB_TITLE>
GROUP DEPOSITION SARS-COV-2 MAIN PROTEASE IN COMPLEX WITH INHIBITORS FROM THE COVID MOONSHOT -- CRYSTAL STRUCTURE OF SARS-COV-2 MAIN PROTEASE IN COMPLEX WITH CHO-MSK-6E55470F-5 (MPRO-X11723)

> <s_pdb_PDB_ID>
7GFG

> <s_m_Source_File>
7gfg.pdb.gz

> <s_user_Compound_ID>
CHO-MSK-6e55470f-5

> <s_user_Monomer-Dimer>
Monomer

> <s_user_xcode>
Mpro-x11723

$$$$
