7GFH_ligand
                    3D
 Schrodinger Suite 2021-2.
 31 33  0  0  1  0            999 V2000
    6.8766   -2.1639   17.4321 N   0  0  0  0  0  0
   10.5802   -2.6038   19.1374 N   0  0  0  0  0  0
    7.7068   -0.6637   24.0367 C   0  0  0  0  0  0
    8.6116   -0.4275   22.8480 C   0  0  0  0  0  0
    8.1838   -1.2863   21.6712 C   0  0  0  0  0  0
    8.3161   -1.5061   19.2469 C   0  0  0  0  0  0
    7.1053   -1.4881   18.5649 C   0  0  0  0  0  0
    9.1254   -3.0323   17.5122 C   0  0  0  0  0  0
    6.4691   -0.0338   24.1057 C   0  0  0  0  0  0
    7.5437   -2.3256   21.8288 O   0  0  0  0  0  0
    8.0458   -1.5813   25.0234 C   0  0  0  0  0  0
    7.1531   -1.8946   26.0385 C   0  0  0  0  0  0
    5.9056   -1.2919   26.0822 C   0  0  0  0  0  0
    5.5904   -0.3583   25.1197 C   0  0  0  0  0  0
    4.0524    0.4616   25.1979 Cl  0  0  0  0  0  0
    8.5551   -0.8205   20.4618 N   0  0  0  0  0  0
    9.3196   -2.3005   18.6871 C   0  0  0  0  0  0
   11.0981   -3.4757   18.2449 C   0  0  0  0  0  0
   10.2809   -3.7723   17.2523 N   0  0  0  0  0  0
    7.8737   -2.9026   16.9274 C   0  0  0  0  0  0
   10.9274   -2.1836   19.9877 H   0  0  0  0  0  0
    9.6389   -0.6701   23.1199 H   0  0  0  0  0  0
    8.5705    0.6240   22.5638 H   0  0  0  0  0  0
    6.3233   -0.8838   19.0005 H   0  0  0  0  0  0
    6.1981    0.7065   23.3675 H   0  0  0  0  0  0
    9.0138   -2.0600   25.0061 H   0  0  0  0  0  0
    7.4292   -2.6106   26.7985 H   0  0  0  0  0  0
    5.2045   -1.5574   26.8596 H   0  0  0  0  0  0
    9.0330    0.0662   20.3872 H   0  0  0  0  0  0
   12.0972   -3.8614   18.3841 H   0  0  0  0  0  0
    7.7295   -3.4470   16.0058 H   0  0  0  0  0  0
  1  7  1  0  0  0
  1 20  2  0  0  0
  2 17  1  0  0  0
  2 18  1  0  0  0
  2 21  1  0  0  0
  3  4  1  0  0  0
  3  9  1  0  0  0
  3 11  2  0  0  0
  4  5  1  0  0  0
  4 22  1  0  0  0
  4 23  1  0  0  0
  5 10  2  0  0  0
  5 16  1  0  0  0
  6  7  2  0  0  0
  6 16  1  0  0  0
  6 17  1  0  0  0
  7 24  1  0  0  0
  8 17  2  0  0  0
  8 19  1  0  0  0
  8 20  1  0  0  0
  9 14  2  0  0  0
  9 25  1  0  0  0
 11 12  1  0  0  0
 11 26  1  0  0  0
 12 13  2  0  0  0
 12 27  1  0  0  0
 13 14  1  0  0  0
 13 28  1  0  0  0
 14 15  1  0  0  0
 16 29  1  0  0  0
 18 19  2  0  0  0
 18 30  1  0  0  0
 20 31  1  0  0  0
M  END
> <s_m_entry_id>
546

> <s_m_entry_name>
7gfh.pdb.1_ligand

> <s_pdb_PDB_TITLE>
GROUP DEPOSITION SARS-COV-2 MAIN PROTEASE IN COMPLEX WITH INHIBITORS FROM THE COVID MOONSHOT -- CRYSTAL STRUCTURE OF SARS-COV-2 MAIN PROTEASE IN COMPLEX WITH MAT-POS-F7918075-8 (MPRO-X11742)

> <s_pdb_PDB_ID>
7GFH

> <s_m_Source_File>
7gfh.pdb.gz

> <s_user_Compound_ID>
MAT-POS-f7918075-8

> <s_user_Monomer-Dimer>
Monomer

> <s_user_xcode>
Mpro-x11742

$$$$
