7GFI_ligand
                    3D
 Schrodinger Suite 2021-2.
 37 38  0  0  1  0            999 V2000
    8.8814   -0.9378   20.5250 N   0  0  0  0  0  0
    8.0062   -5.6811   23.7186 N   0  0  0  0  0  0
    7.3798   -1.3716   18.6297 C   0  0  0  0  0  0
    8.6187   -1.5188   19.2574 C   0  0  0  0  0  0
    8.2876   -1.4072   21.6427 C   0  0  0  0  0  0
    8.7038   -0.7441   22.9412 C   0  0  0  0  0  0
    7.8544   -1.2565   24.0834 C   0  0  0  0  0  0
    5.9180   -1.0374   25.4690 C   0  0  0  0  0  0
    8.0443   -2.5413   24.5884 C   0  0  0  0  0  0
    7.6685   -6.9696   25.7562 O   0  0  0  0  0  0
    8.1584   -5.7029   25.3261 S   0  0  0  0  0  0
    9.5047   -5.3422   25.6247 O   0  0  0  0  0  0
    7.2193   -4.4808   25.8894 N   0  5  0  0  0  0
    7.1455   -3.0915   25.5007 C   0  0  0  0  0  0
    6.0820   -2.3177   25.9694 C   0  0  0  0  0  0
    4.5385   -0.0986   25.9727 Cl  0  0  0  0  0  0
    6.7840   -0.4998   24.5422 C   0  0  0  0  0  0
    7.4872   -2.3290   21.6307 O   0  0  0  0  0  0
    9.5819   -2.3467   18.6484 C   0  0  0  0  0  0
   10.9483   -2.5591   19.2487 C   0  0  0  0  0  0
    7.0406   -2.0030   17.5014 N   0  0  0  0  0  0
    7.9646   -2.7868   16.9344 C   0  0  0  0  0  0
    9.2264   -2.9805   17.4614 C   0  0  0  0  0  0
    9.5216   -0.1603   20.6013 H   0  0  0  0  0  0
    8.2960   -4.8675   23.1949 H   0  0  0  0  0  0
    7.6211   -6.4809   23.2369 H   0  0  0  0  0  0
    6.6330   -0.7179   19.0557 H   0  0  0  0  0  0
    8.5808    0.3354   22.8532 H   0  0  0  0  0  0
    9.7524   -0.9641   23.1414 H   0  0  0  0  0  0
    8.8969   -3.1247   24.2735 H   0  0  0  0  0  0
    5.3939   -2.7009   26.7085 H   0  0  0  0  0  0
    6.6343    0.5038   24.1723 H   0  0  0  0  0  0
   11.5242   -3.2322   18.6135 H   0  0  0  0  0  0
   11.4647   -1.6023   19.3257 H   0  0  0  0  0  0
   10.8454   -2.9967   20.2417 H   0  0  0  0  0  0
    7.7404   -3.3082   16.0155 H   0  0  0  0  0  0
    9.9358   -3.6201   16.9573 H   0  0  0  0  0  0
  1  4  1  0  0  0
  1  5  1  0  0  0
  1 24  1  0  0  0
  2 11  1  0  0  0
  2 25  1  0  0  0
  2 26  1  0  0  0
  3  4  1  0  0  0
  3 21  2  0  0  0
  3 27  1  0  0  0
  4 19  2  0  0  0
  5  6  1  0  0  0
  5 18  2  0  0  0
  6  7  1  0  0  0
  6 28  1  0  0  0
  6 29  1  0  0  0
  7  9  1  0  0  0
  7 17  2  0  0  0
  8 15  2  0  0  0
  8 16  1  0  0  0
  8 17  1  0  0  0
  9 14  2  0  0  0
  9 30  1  0  0  0
 10 11  2  0  0  0
 11 12  2  0  0  0
 11 13  1  0  0  0
 13 14  1  0  0  0
 14 15  1  0  0  0
 15 31  1  0  0  0
 17 32  1  0  0  0
 19 20  1  0  0  0
 19 23  1  0  0  0
 20 33  1  0  0  0
 20 34  1  0  0  0
 20 35  1  0  0  0
 21 22  1  0  0  0
 22 23  2  0  0  0
 22 36  1  0  0  0
 23 37  1  0  0  0
M  CHG  1  13  -1
M  END
> <s_m_entry_id>
548

> <s_m_entry_name>
7gfi.pdb.1_ligand

> <s_pdb_PDB_TITLE>
GROUP DEPOSITION SARS-COV-2 MAIN PROTEASE IN COMPLEX WITH INHIBITORS FROM THE COVID MOONSHOT -- CRYSTAL STRUCTURE OF SARS-COV-2 MAIN PROTEASE IN COMPLEX WITH WIL-MOD-03B86A88-6 (MPRO-X11743)

> <s_pdb_PDB_ID>
7GFI

> <s_m_Source_File>
7gfi.pdb.gz

> <s_user_Compound_ID>
WIL-MOD-03b86a88-6

> <s_user_Monomer-Dimer>
Monomer

> <s_user_xcode>
Mpro-x11743

$$$$
