7GFJ_ligand
                    3D
 Schrodinger Suite 2021-2.
 63 67  0  0  1  0            999 V2000
    6.8526   -1.1350   19.3333 N   0  0  0  0  0  0
    8.3798   -1.2074   23.6648 N   0  0  0  0  0  0
    8.2823   -2.2958   18.1828 C   0  0  0  0  0  0
    8.1215   -0.5205   21.3092 C   0  0  0  0  0  0
    7.8912   -1.5325   22.4312 C   0  0  0  0  0  0
    7.9143   -1.9777   24.8199 C   0  0  0  0  0  0
    7.1143   -1.1500   25.7966 C   0  0  0  0  0  0
    6.9662    0.0815   27.8360 C   0  0  0  0  0  0
    9.2779   -0.1207   23.9274 C   0  0  0  0  0  0
   11.5227    0.7336   24.1164 C   0  0  0  0  0  0
    9.6679    2.1825   24.5157 C   0  0  0  0  0  0
   12.6459    3.1841   26.0029 C   0  0  0  0  0  0
   13.5406    4.4037   26.1481 C   0  0  0  0  0  0
   13.9757    4.4309   23.7380 C   0  0  0  0  0  0
    8.9608   -1.8596   19.3171 C   0  0  0  0  0  0
    7.2677   -2.5664   22.2250 O   0  0  0  0  0  0
    8.0324   -1.1404   20.0052 N   0  0  0  0  0  0
    6.9908   -1.8242   18.2339 N   0  0  0  0  0  0
    8.9286   -3.1125   17.2595 C   0  0  0  0  0  0
   10.2453   -3.4756   17.4908 C   0  0  0  0  0  0
   10.2817   -2.2037   19.5581 C   0  0  0  0  0  0
   10.9126   -3.0172   18.6246 C   0  0  0  0  0  0
   12.2201   -3.4248   18.6928 O   0  0  0  0  0  0
   13.0069   -3.0089   19.8103 C   0  0  0  0  0  0
    6.0478   -0.5111   25.2832 N   0  0  0  0  0  0
    5.4706    0.4413   26.0388 C   0  0  0  0  0  0
    5.9041    0.7783   27.3086 C   0  0  0  0  0  0
    7.5848   -0.9032   27.0823 C   0  0  0  0  0  0
    8.7891    1.1417   24.2664 C   0  0  0  0  0  0
   11.0429    1.9988   24.4315 C   0  0  0  0  0  0
   10.6580   -0.3173   23.8632 C   0  0  0  0  0  0
   11.9956    3.1622   24.6166 C   0  0  0  0  0  0
   13.0829    3.2188   23.5383 C   0  0  0  0  0  0
   14.5775    4.4190   25.0904 N   0  3  0  0  0  0
    9.1046   -0.0649   21.4279 H   0  0  0  0  0  0
    7.3823    0.2771   21.3829 H   0  0  0  0  0  0
    8.7710   -2.4150   25.3326 H   0  0  0  0  0  0
    7.3094   -2.8166   24.4758 H   0  0  0  0  0  0
    7.3150    0.3027   28.8339 H   0  0  0  0  0  0
   12.5869    0.5569   24.0657 H   0  0  0  0  0  0
    9.2882    3.1581   24.7810 H   0  0  0  0  0  0
   11.8696    3.2102   26.7676 H   0  0  0  0  0  0
   13.2394    2.2801   26.1398 H   0  0  0  0  0  0
   14.0204    4.3874   27.1267 H   0  0  0  0  0  0
   12.9360    5.3079   26.0769 H   0  0  0  0  0  0
   13.3877    5.3398   23.6104 H   0  0  0  0  0  0
   14.7671    4.4263   22.9885 H   0  0  0  0  0  0
    8.4037   -3.4530   16.3793 H   0  0  0  0  0  0
   10.7595   -4.1170   16.7904 H   0  0  0  0  0  0
   10.7810   -1.8413   20.4446 H   0  0  0  0  0  0
   14.0148   -3.4131   19.7163 H   0  0  0  0  0  0
   13.0537   -1.9202   19.8373 H   0  0  0  0  0  0
   12.5534   -3.3755   20.7312 H   0  0  0  0  0  0
    4.6206    0.9895   25.6601 H   0  0  0  0  0  0
    5.4341    1.5627   27.8832 H   0  0  0  0  0  0
    8.4148   -1.4737   27.4723 H   0  0  0  0  0  0
    7.7242    1.3081   24.3345 H   0  0  0  0  0  0
   11.0538   -1.2912   23.6156 H   0  0  0  0  0  0
   11.4070    4.0750   24.5253 H   0  0  0  0  0  0
   13.6863    2.3122   23.5834 H   0  0  0  0  0  0
   12.6162    3.2699   22.5546 H   0  0  0  0  0  0
   15.1690    3.6061   25.1879 H   0  0  0  0  0  0
   15.1626    5.2342   25.2051 H   0  0  0  0  0  0
  1 17  1  0  0  0
  1 18  2  0  0  0
  2  5  1  0  0  0
  2  6  1  0  0  0
  2  9  1  0  0  0
  3 15  2  0  0  0
  3 18  1  0  0  0
  3 19  1  0  0  0
  4  5  1  0  0  0
  4 17  1  0  0  0
  4 35  1  0  0  0
  4 36  1  0  0  0
  5 16  2  0  0  0
  6  7  1  0  0  0
  6 37  1  0  0  0
  6 38  1  0  0  0
  7 25  1  0  0  0
  7 28  2  0  0  0
  8 27  2  0  0  0
  8 28  1  0  0  0
  8 39  1  0  0  0
  9 29  1  0  0  0
  9 31  2  0  0  0
 10 30  2  0  0  0
 10 31  1  0  0  0
 10 40  1  0  0  0
 11 29  2  0  0  0
 11 30  1  0  0  0
 11 41  1  0  0  0
 12 13  1  0  0  0
 12 32  1  0  0  0
 12 42  1  0  0  0
 12 43  1  0  0  0
 13 34  1  0  0  0
 13 44  1  0  0  0
 13 45  1  0  0  0
 14 33  1  0  0  0
 14 34  1  0  0  0
 14 46  1  0  0  0
 14 47  1  0  0  0
 15 17  1  0  0  0
 15 21  1  0  0  0
 19 20  2  0  0  0
 19 48  1  0  0  0
 20 22  1  0  0  0
 20 49  1  0  0  0
 21 22  2  0  0  0
 21 50  1  0  0  0
 22 23  1  0  0  0
 23 24  1  0  0  0
 24 51  1  0  0  0
 24 52  1  0  0  0
 24 53  1  0  0  0
 25 26  2  0  0  0
 26 27  1  0  0  0
 26 54  1  0  0  0
 27 55  1  0  0  0
 28 56  1  0  0  0
 29 57  1  0  0  0
 30 32  1  0  0  0
 31 58  1  0  0  0
 32 33  1  0  0  0
 32 59  1  0  0  0
 33 60  1  0  0  0
 33 61  1  0  0  0
 34 62  1  0  0  0
 34 63  1  0  0  0
M  CHG  1  34   1
M  END
> <s_m_entry_id>
550

> <s_m_entry_name>
7gfj.pdb.1_ligand

> <s_pdb_PDB_TITLE>
GROUP DEPOSITION SARS-COV-2 MAIN PROTEASE IN COMPLEX WITH INHIBITORS FROM THE COVID MOONSHOT -- CRYSTAL STRUCTURE OF SARS-COV-2 MAIN PROTEASE IN COMPLEX WITH ALP-POS-C0C213C9-1 (MPRO-X11757)

> <s_pdb_PDB_ID>
7GFJ

> <s_m_Source_File>
7gfj.pdb.gz

> <s_user_Compound_ID>
ALP-POS-c0c213c9-1

> <s_user_Monomer-Dimer>
Monomer

> <s_user_xcode>
Mpro-x11757

$$$$
