7GFK_ligand
                    3D
 Schrodinger Suite 2021-2.
 47 49  0  0  1  0            999 V2000
    8.4737   -0.6871   20.3021 N   0  0  0  0  0  0
    7.0992   -1.4237   18.4171 C   0  0  0  0  0  0
    8.2987   -1.4470   19.1275 C   0  0  0  0  0  0
    7.9102   -1.0152   21.4816 C   0  0  0  0  0  0
    8.0217    0.0565   22.5464 C   0  0  0  0  0  0
    8.2092   -0.5738   23.9033 C   0  0  0  0  0  0
    7.2966   -1.6088   25.8542 C   0  0  0  0  0  0
   12.2021   -1.4298   25.4314 C   0  0  1  0  0  0
   14.6213   -1.6908   25.6824 C   0  0  0  0  0  0
   12.7015   -2.5184   24.4608 C   0  0  1  0  0  0
    5.9063   -2.0287   26.8094 Cl  0  0  0  0  0  0
    7.1065   -0.9592   24.6532 C   0  0  0  0  0  0
    8.5570   -1.8980   26.3389 C   0  0  0  0  0  0
    9.6658   -1.4986   25.5982 C   0  0  0  0  0  0
   10.9437   -1.7801   26.0752 N   0  0  0  0  0  0
   12.0360   -2.4665   23.1991 O   0  0  0  0  0  0
   14.1779   -2.1828   24.3103 C   0  0  0  0  0  0
   13.3538   -1.2831   26.4359 C   0  0  0  0  0  0
    9.4841   -0.8331   24.3896 C   0  0  0  0  0  0
    7.3401   -2.0862   21.6898 O   0  0  0  0  0  0
    9.3348   -2.2782   18.6747 C   0  0  0  0  0  0
   10.6296   -2.4220   19.4306 C   0  0  0  0  0  0
    6.8813   -2.1483   17.3175 N   0  0  0  0  0  0
    7.8861   -2.9216   16.8832 C   0  0  0  0  0  0
    9.1061   -3.0139   17.5189 C   0  0  0  0  0  0
    9.0437    0.1465   20.2840 H   0  0  0  0  0  0
    6.2862   -0.7958   18.7507 H   0  0  0  0  0  0
    7.1149    0.6613   22.5493 H   0  0  0  0  0  0
    8.8723    0.7012   22.3250 H   0  0  0  0  0  0
   12.0786   -0.4933   24.8877 H   0  0  0  0  0  0
   15.2681   -0.8214   25.5641 H   0  0  0  0  0  0
   15.1152   -2.5026   26.2163 H   0  0  0  0  0  0
   12.5833   -3.5051   24.9085 H   0  0  0  0  0  0
    6.1096   -0.7495   24.2945 H   0  0  0  0  0  0
    8.6677   -2.4243   27.2755 H   0  0  0  0  0  0
   11.0593   -2.2737   26.9487 H   0  0  0  0  0  0
   12.3767   -3.1591   22.6283 H   0  0  0  0  0  0
   14.7301   -3.0871   24.0545 H   0  0  0  0  0  0
   14.2938   -1.3791   23.5831 H   0  0  0  0  0  0
   13.1944   -1.9647   27.2715 H   0  0  0  0  0  0
   13.4351   -0.2406   26.7437 H   0  0  0  0  0  0
   10.3508   -0.5173   23.8279 H   0  0  0  0  0  0
   11.2854   -3.1128   18.9007 H   0  0  0  0  0  0
   11.1149   -1.4492   19.5093 H   0  0  0  0  0  0
   10.4268   -2.8082   20.4295 H   0  0  0  0  0  0
    7.7629   -3.5159   15.9899 H   0  0  0  0  0  0
    9.8816   -3.6532   17.1234 H   0  0  0  0  0  0
  1  3  1  0  0  0
  1  4  1  0  0  0
  1 26  1  0  0  0
  2  3  1  0  0  0
  2 23  2  0  0  0
  2 27  1  0  0  0
  3 21  2  0  0  0
  4  5  1  0  0  0
  4 20  2  0  0  0
  5  6  1  0  0  0
  5 28  1  0  0  0
  5 29  1  0  0  0
  6 12  1  0  0  0
  6 19  2  0  0  0
  7 11  1  0  0  0
  7 12  2  0  0  0
  7 13  1  0  0  0
  8 10  1  0  0  0
  8 15  1  0  0  0
  8 18  1  0  0  0
  8 30  1  0  0  0
  9 17  1  0  0  0
  9 18  1  0  0  0
  9 31  1  0  0  0
  9 32  1  0  0  0
 10 16  1  0  0  0
 10 17  1  0  0  0
 10 33  1  0  0  0
 12 34  1  0  0  0
 13 14  2  0  0  0
 13 35  1  0  0  0
 14 15  1  0  0  0
 14 19  1  0  0  0
 15 36  1  0  0  0
 16 37  1  0  0  0
 17 38  1  0  0  0
 17 39  1  0  0  0
 18 40  1  0  0  0
 18 41  1  0  0  0
 19 42  1  0  0  0
 21 22  1  0  0  0
 21 25  1  0  0  0
 22 43  1  0  0  0
 22 44  1  0  0  0
 22 45  1  0  0  0
 23 24  1  0  0  0
 24 25  2  0  0  0
 24 46  1  0  0  0
 25 47  1  0  0  0
M  END
> <s_m_entry_id>
552

> <s_m_entry_name>
7gfk.pdb.1_ligand

> <s_pdb_PDB_TITLE>
GROUP DEPOSITION SARS-COV-2 MAIN PROTEASE IN COMPLEX WITH INHIBITORS FROM THE COVID MOONSHOT -- CRYSTAL STRUCTURE OF SARS-COV-2 MAIN PROTEASE IN COMPLEX WITH MAT-POS-044491D2-1 (MPRO-X11764)

> <s_pdb_PDB_ID>
7GFK

> <s_m_Source_File>
7gfk.pdb.gz

> <s_user_Compound_ID>
MAT-POS-044491d2-1

> <s_user_Monomer-Dimer>
Monomer

> <s_user_xcode>
Mpro-x11764

$$$$
