7GFL_ligand
                    3D
 Schrodinger Suite 2021-2.
 31 33  0  0  1  0            999 V2000
    8.1879   -1.0928   19.2991 N   0  0  0  0  0  0
    7.0185   -1.8794   17.7004 N   0  0  0  0  0  0
    7.8488   -0.6435   24.1141 C   0  0  0  0  0  0
    8.6766   -0.2740   22.9054 C   0  0  0  0  0  0
    8.2890   -1.1016   21.6956 C   0  0  0  0  0  0
    8.3116   -2.3515   17.5936 C   0  0  0  0  0  0
    8.9011   -3.2129   16.6730 C   0  0  0  0  0  0
   10.9978   -2.9830   17.8648 C   0  0  0  0  0  0
    6.5629   -0.1339   24.2567 C   0  0  0  0  0  0
    7.8663   -2.2475   21.8108 O   0  0  0  0  0  0
    8.3381   -1.5131   25.0796 C   0  0  0  0  0  0
    7.5500   -1.8967   26.1508 C   0  0  0  0  0  0
    6.2580   -1.4063   26.2800 C   0  0  0  0  0  0
    5.7972   -0.5065   25.3409 C   0  0  0  0  0  0
    4.2478    0.2491   25.5734 Cl  0  0  0  0  0  0
    8.4396   -0.4782   20.5128 N   0  0  0  0  0  0
    9.0718   -1.8197   18.6331 C   0  0  0  0  0  0
    6.9500   -1.0960   18.7335 N   0  0  0  0  0  0
   10.4197   -2.1148   18.7784 C   0  0  0  0  0  0
   10.2496   -3.5240   16.8207 C   0  0  0  0  0  0
    9.7324   -0.4288   23.1277 H   0  0  0  0  0  0
    8.5386    0.7837   22.6807 H   0  0  0  0  0  0
    8.3137   -3.6245   15.8656 H   0  0  0  0  0  0
   12.0407   -3.2481   17.9569 H   0  0  0  0  0  0
    6.1684    0.5503   23.5200 H   0  0  0  0  0  0
    9.3440   -1.8980   24.9997 H   0  0  0  0  0  0
    7.9398   -2.5804   26.8904 H   0  0  0  0  0  0
    5.6372   -1.7300   27.1024 H   0  0  0  0  0  0
    8.7517    0.4821   20.5375 H   0  0  0  0  0  0
   11.0164   -1.6909   19.5726 H   0  0  0  0  0  0
   10.7294   -4.1925   16.1211 H   0  0  0  0  0  0
  1 16  1  0  0  0
  1 17  1  0  0  0
  1 18  1  0  0  0
  2  6  1  0  0  0
  2 18  2  0  0  0
  3  4  1  0  0  0
  3  9  1  0  0  0
  3 11  2  0  0  0
  4  5  1  0  0  0
  4 21  1  0  0  0
  4 22  1  0  0  0
  5 10  2  0  0  0
  5 16  1  0  0  0
  6  7  1  0  0  0
  6 17  2  0  0  0
  7 20  2  0  0  0
  7 23  1  0  0  0
  8 19  2  0  0  0
  8 20  1  0  0  0
  8 24  1  0  0  0
  9 14  2  0  0  0
  9 25  1  0  0  0
 11 12  1  0  0  0
 11 26  1  0  0  0
 12 13  2  0  0  0
 12 27  1  0  0  0
 13 14  1  0  0  0
 13 28  1  0  0  0
 14 15  1  0  0  0
 16 29  1  0  0  0
 17 19  1  0  0  0
 19 30  1  0  0  0
 20 31  1  0  0  0
M  END
> <s_m_entry_id>
554

> <s_m_entry_name>
7gfl.pdb.1_ligand

> <s_pdb_PDB_TITLE>
GROUP DEPOSITION SARS-COV-2 MAIN PROTEASE IN COMPLEX WITH INHIBITORS FROM THE COVID MOONSHOT -- CRYSTAL STRUCTURE OF SARS-COV-2 MAIN PROTEASE IN COMPLEX WITH MAT-POS-BFB445D4-2 (MPRO-X11789)

> <s_pdb_PDB_ID>
7GFL

> <s_m_Source_File>
7gfl.pdb.gz

> <s_user_Compound_ID>
MAT-POS-bfb445d4-2

> <s_user_Monomer-Dimer>
Monomer

> <s_user_xcode>
Mpro-x11789

$$$$
