7GFM_ligand
                    3D
 Schrodinger Suite 2021-2.
 52 55  0  0  1  0            999 V2000
    8.4311   -1.0437   23.4280 N   0  0  0  0  0  0
   10.5982    0.0204   23.8424 C   0  0  0  0  0  0
    9.2244    0.1325   23.6465 C   0  0  0  0  0  0
    8.6161    1.3752   23.8049 C   0  0  0  0  0  0
    9.3612    2.4804   24.1861 C   0  0  0  0  0  0
    8.0721   -1.8552   24.5882 C   0  0  0  0  0  0
    6.3050   -1.8327   26.5072 C   0  0  0  0  0  0
    7.9651   -1.4369   22.2062 C   0  0  0  0  0  0
    8.2106   -1.3023   19.6975 C   0  0  0  0  0  0
    8.0080   -2.6342   17.2969 C   0  0  0  0  0  0
   11.4277   -3.6836   18.3500 C   0  0  0  0  0  0
   11.5454   -2.9870   19.5421 C   0  0  0  0  0  0
   10.5221   -2.2045   19.9959 C   0  0  0  0  0  0
    7.3152   -2.4644   22.0637 O   0  0  0  0  0  0
    8.2605   -0.5487   21.0107 C   0  0  0  0  0  0
    9.3166   -2.0788   19.2580 C   0  0  0  0  0  0
   10.2941   -3.5840   17.5947 C   0  0  0  0  0  0
    9.2120   -2.7769   18.0250 C   0  0  0  0  0  0
    6.9759   -1.9119   17.7101 N   0  0  0  0  0  0
    7.0944   -1.2754   18.8843 C   0  0  0  0  0  0
    6.7829   -1.4188   25.2342 C   0  0  0  0  0  0
    5.9515   -0.5017   24.6566 C   0  0  0  0  0  0
    4.6146   -0.1200   25.6398 S   0  0  0  0  0  0
    5.1433   -1.2151   26.8646 C   0  0  0  0  0  0
   11.3453    1.1195   24.2315 C   0  0  0  0  0  0
   10.7388    2.3715   24.4273 C   0  0  0  0  0  0
   11.4700    3.4564   24.8891 N   0  0  0  0  0  0
   10.8349    4.4567   25.7337 C   0  0  0  0  0  0
   12.8952    3.3372   25.1635 C   0  0  0  0  0  0
   11.0896   -0.9294   23.6910 H   0  0  0  0  0  0
    7.5558    1.4836   23.6305 H   0  0  0  0  0  0
    8.8818    3.4413   24.3010 H   0  0  0  0  0  0
    8.8770   -1.8139   25.3220 H   0  0  0  0  0  0
    7.9912   -2.9000   24.2882 H   0  0  0  0  0  0
    6.8558   -2.5651   27.0787 H   0  0  0  0  0  0
    7.8909   -3.1300   16.3446 H   0  0  0  0  0  0
   12.2370   -4.3129   18.0101 H   0  0  0  0  0  0
   12.4532   -3.0596   20.1227 H   0  0  0  0  0  0
   10.6237   -1.6702   20.9290 H   0  0  0  0  0  0
    9.2443   -0.0950   21.1309 H   0  0  0  0  0  0
    7.5449    0.2730   20.9843 H   0  0  0  0  0  0
   10.2178   -4.1228   16.6618 H   0  0  0  0  0  0
    6.2243   -0.7080   19.1801 H   0  0  0  0  0  0
    6.1812   -0.1049   23.6788 H   0  0  0  0  0  0
    4.6807   -1.4425   27.8136 H   0  0  0  0  0  0
   12.4093    1.0211   24.3885 H   0  0  0  0  0  0
   11.5611    5.2264   25.9950 H   0  0  0  0  0  0
   10.0023    4.9109   25.1966 H   0  0  0  0  0  0
   10.4650    3.9832   26.6431 H   0  0  0  0  0  0
   13.2795    4.2949   25.5147 H   0  0  0  0  0  0
   13.0561    2.5787   25.9295 H   0  0  0  0  0  0
   13.4184    3.0488   24.2518 H   0  0  0  0  0  0
  1  3  1  0  0  0
  1  6  1  0  0  0
  1  8  1  0  0  0
  2  3  1  0  0  0
  2 25  2  0  0  0
  2 30  1  0  0  0
  3  4  2  0  0  0
  4  5  1  0  0  0
  4 31  1  0  0  0
  5 26  2  0  0  0
  5 32  1  0  0  0
  6 21  1  0  0  0
  6 33  1  0  0  0
  6 34  1  0  0  0
  7 21  1  0  0  0
  7 24  2  0  0  0
  7 35  1  0  0  0
  8 14  2  0  0  0
  8 15  1  0  0  0
  9 15  1  0  0  0
  9 16  1  0  0  0
  9 20  2  0  0  0
 10 18  1  0  0  0
 10 19  2  0  0  0
 10 36  1  0  0  0
 11 12  1  0  0  0
 11 17  2  0  0  0
 11 37  1  0  0  0
 12 13  2  0  0  0
 12 38  1  0  0  0
 13 16  1  0  0  0
 13 39  1  0  0  0
 15 40  1  0  0  0
 15 41  1  0  0  0
 16 18  2  0  0  0
 17 18  1  0  0  0
 17 42  1  0  0  0
 19 20  1  0  0  0
 20 43  1  0  0  0
 21 22  2  0  0  0
 22 23  1  0  0  0
 22 44  1  0  0  0
 23 24  1  0  0  0
 24 45  1  0  0  0
 25 26  1  0  0  0
 25 46  1  0  0  0
 26 27  1  0  0  0
 27 28  1  0  0  0
 27 29  1  0  0  0
 28 47  1  0  0  0
 28 48  1  0  0  0
 28 49  1  0  0  0
 29 50  1  0  0  0
 29 51  1  0  0  0
 29 52  1  0  0  0
M  END
> <s_m_entry_id>
556

> <s_m_entry_name>
7gfm.pdb.1_ligand

> <s_pdb_PDB_TITLE>
GROUP DEPOSITION SARS-COV-2 MAIN PROTEASE IN COMPLEX WITH INHIBITORS FROM THE COVID MOONSHOT -- CRYSTAL STRUCTURE OF SARS-COV-2 MAIN PROTEASE IN COMPLEX WITH PET-UNK-1901C25B-1 (MPRO-X11790)

> <s_pdb_PDB_ID>
7GFM

> <s_m_Source_File>
7gfm.pdb.gz

> <s_user_Compound_ID>
PET-UNK-1901c25b-1

> <s_user_Monomer-Dimer>
Monomer

> <s_user_xcode>
Mpro-x11790

$$$$
