7GFN_ligand
                    3D
 Schrodinger Suite 2021-2.
 49 52  0  0  1  0            999 V2000
    8.4991   -1.7197   23.4799 N   0  0  0  0  0  0
    6.6421   -4.2135   25.1941 N   0  0  0  0  0  0
    8.1592    0.5945   24.2083 C   0  0  0  0  0  0
    9.0149   -0.4594   23.9028 C   0  0  0  0  0  0
   10.3858   -0.2753   23.9993 C   0  0  0  0  0  0
   10.9026    0.9369   24.4186 C   0  0  0  0  0  0
    8.5524   -2.8381   24.4167 C   0  0  0  0  0  0
    6.4939   -2.1320   25.8480 C   0  0  0  0  0  0
    8.0423   -0.7684   21.2516 C   0  0  0  0  0  0
    8.8649   -3.1774   17.0981 C   0  0  0  0  0  0
   10.8583   -3.1674   18.4802 C   0  0  0  0  0  0
    7.5329   -3.0207   21.8948 O   0  0  0  0  0  0
    7.9995   -1.9440   22.2301 C   0  0  0  0  0  0
    8.0281   -1.2150   19.8748 N   0  0  0  0  0  0
    8.9215   -1.9894   19.1962 C   0  0  0  0  0  0
   10.2325   -2.3777   19.4385 C   0  0  0  0  0  0
   10.1840   -3.5592   17.3209 C   0  0  0  0  0  0
    8.2340   -2.3789   18.0490 C   0  0  0  0  0  0
    6.9683   -1.8392   18.0913 N   0  0  0  0  0  0
    6.8568   -1.1456   19.1913 N   0  0  0  0  0  0
    7.2654   -3.0221   25.1427 C   0  0  0  0  0  0
    5.4879   -4.1353   25.9205 N   0  0  0  0  0  0
    5.4044   -2.8685   26.3052 C   0  0  0  0  0  0
    8.6714    1.8155   24.6075 C   0  0  0  0  0  0
   10.0571    2.0069   24.7378 C   0  0  0  0  0  0
   10.5706    3.2026   25.1940 N   0  0  0  0  0  0
   12.0024    3.4753   25.1752 C   0  0  0  0  0  0
    9.6990    4.3142   25.5355 C   0  0  0  0  0  0
    7.0438   -5.0142   24.7276 H   0  0  0  0  0  0
    7.0901    0.4609   24.1341 H   0  0  0  0  0  0
   11.0580   -1.0818   23.7461 H   0  0  0  0  0  0
   11.9713    1.0679   24.5036 H   0  0  0  0  0  0
    9.3538   -2.6704   25.1363 H   0  0  0  0  0  0
    8.7977   -3.7523   23.8763 H   0  0  0  0  0  0
    6.8050   -1.1018   25.9392 H   0  0  0  0  0  0
    8.9410   -0.1787   21.4323 H   0  0  0  0  0  0
    7.1871   -0.1166   21.4302 H   0  0  0  0  0  0
    8.3532   -3.5001   16.2034 H   0  0  0  0  0  0
   11.8796   -3.4864   18.6265 H   0  0  0  0  0  0
   10.7659   -2.0886   20.3320 H   0  0  0  0  0  0
   10.7007   -4.1666   16.5927 H   0  0  0  0  0  0
    4.6357   -2.3878   26.8921 H   0  0  0  0  0  0
    8.0039    2.6366   24.8234 H   0  0  0  0  0  0
   12.1885    4.4710   25.5777 H   0  0  0  0  0  0
   12.5218    2.7351   25.7838 H   0  0  0  0  0  0
   12.3691    3.4240   24.1500 H   0  0  0  0  0  0
   10.3009    5.1583   25.8722 H   0  0  0  0  0  0
    9.1221    4.6070   24.6583 H   0  0  0  0  0  0
    9.0195    4.0123   26.3325 H   0  0  0  0  0  0
  1  4  1  0  0  0
  1  7  1  0  0  0
  1 13  1  0  0  0
  2 21  1  0  0  0
  2 22  1  0  0  0
  2 29  1  0  0  0
  3  4  1  0  0  0
  3 24  2  0  0  0
  3 30  1  0  0  0
  4  5  2  0  0  0
  5  6  1  0  0  0
  5 31  1  0  0  0
  6 25  2  0  0  0
  6 32  1  0  0  0
  7 21  1  0  0  0
  7 33  1  0  0  0
  7 34  1  0  0  0
  8 21  2  0  0  0
  8 23  1  0  0  0
  8 35  1  0  0  0
  9 13  1  0  0  0
  9 14  1  0  0  0
  9 36  1  0  0  0
  9 37  1  0  0  0
 10 17  2  0  0  0
 10 18  1  0  0  0
 10 38  1  0  0  0
 11 16  2  0  0  0
 11 17  1  0  0  0
 11 39  1  0  0  0
 12 13  2  0  0  0
 14 15  1  0  0  0
 14 20  1  0  0  0
 15 16  1  0  0  0
 15 18  2  0  0  0
 16 40  1  0  0  0
 17 41  1  0  0  0
 18 19  1  0  0  0
 19 20  2  0  0  0
 22 23  2  0  0  0
 23 42  1  0  0  0
 24 25  1  0  0  0
 24 43  1  0  0  0
 25 26  1  0  0  0
 26 27  1  0  0  0
 26 28  1  0  0  0
 27 44  1  0  0  0
 27 45  1  0  0  0
 27 46  1  0  0  0
 28 47  1  0  0  0
 28 48  1  0  0  0
 28 49  1  0  0  0
M  END
> <s_m_entry_id>
558

> <s_m_entry_name>
7gfn.pdb.1_ligand

> <s_pdb_PDB_TITLE>
GROUP DEPOSITION SARS-COV-2 MAIN PROTEASE IN COMPLEX WITH INHIBITORS FROM THE COVID MOONSHOT -- CRYSTAL STRUCTURE OF SARS-COV-2 MAIN PROTEASE IN COMPLEX WITH PET-UNK-7374C256-2 (MPRO-X11797)

> <s_pdb_PDB_ID>
7GFN

> <s_m_Source_File>
7gfn.pdb.gz

> <s_user_Compound_ID>
PET-UNK-7374c256-2

> <s_user_Monomer-Dimer>
Monomer

> <s_user_xcode>
Mpro-x11797

$$$$
