7GFO_ligand
                    3D
 Schrodinger Suite 2021-2.
 50 53  0  0  1  0            999 V2000
   11.7755    3.1781   24.9994 N   0  0  0  0  0  0
    7.9937   -1.2046   20.0059 N   0  0  0  0  0  0
    8.7240    1.2954   24.1541 C   0  0  0  0  0  0
    9.2410    0.0405   23.8405 C   0  0  0  0  0  0
   10.6245   -0.1408   23.8115 C   0  0  0  0  0  0
   11.4726    0.9065   24.1295 C   0  0  0  0  0  0
    7.9903   -1.8537   24.8300 C   0  0  0  0  0  0
    7.6621   -0.5395   27.0738 C   0  0  0  0  0  0
    7.8439   -1.4384   22.4478 C   0  0  0  0  0  0
    8.2065   -2.3072   18.1468 C   0  0  0  0  0  0
   10.1161   -3.5623   17.4433 C   0  0  0  0  0  0
    8.8929   -1.9461   19.3013 C   0  0  0  0  0  0
    7.1596   -2.4464   22.2997 O   0  0  0  0  0  0
    8.1545   -0.5186   21.2677 C   0  0  0  0  0  0
   10.1897   -2.3708   19.5509 C   0  0  0  0  0  0
   10.7911   -3.1929   18.6047 C   0  0  0  0  0  0
    8.8186   -3.1245   17.2013 C   0  0  0  0  0  0
    6.9396   -1.7729   18.2030 N   0  0  0  0  0  0
    6.8232   -1.1223   19.3274 N   0  0  0  0  0  0
    8.3684   -1.0766   23.6554 N   0  0  0  0  0  0
    7.2023   -1.0377   25.8185 C   0  0  0  0  0  0
    5.9598   -0.5685   25.5117 C   0  0  0  0  0  0
    5.3616    0.4760   26.7076 S   0  0  0  0  0  0
    6.7719    0.3128   27.6858 C   0  0  0  0  0  0
    9.5742    2.3397   24.4757 C   0  0  0  0  0  0
   10.9528    2.1489   24.4835 C   0  0  0  0  0  0
   13.1187    3.3681   24.7960 C   0  0  0  0  0  0
   13.7574    2.8450   23.8844 O   0  0  0  0  0  0
   13.6913    4.1932   25.6884 N   0  0  0  0  0  0
   15.1088    4.5086   25.6540 C   0  0  0  0  0  0
   11.3796    3.8891   25.5976 H   0  0  0  0  0  0
    7.6562    1.4567   24.1471 H   0  0  0  0  0  0
   11.0377   -1.1010   23.5402 H   0  0  0  0  0  0
   12.5426    0.7618   24.1036 H   0  0  0  0  0  0
    8.8877   -2.2406   25.3128 H   0  0  0  0  0  0
    7.4003   -2.7160   24.5196 H   0  0  0  0  0  0
    8.6273   -0.8405   27.4535 H   0  0  0  0  0  0
   10.6002   -4.1971   16.7160 H   0  0  0  0  0  0
    7.4917    0.3462   21.2975 H   0  0  0  0  0  0
    9.1773   -0.1515   21.3532 H   0  0  0  0  0  0
   10.6948   -2.0616   20.4541 H   0  0  0  0  0  0
   11.7966   -3.5460   18.7803 H   0  0  0  0  0  0
    8.2864   -3.4048   16.3042 H   0  0  0  0  0  0
    5.4788   -0.8735   24.5941 H   0  0  0  0  0  0
    7.0192    0.7596   28.6374 H   0  0  0  0  0  0
    9.1686    3.3097   24.7226 H   0  0  0  0  0  0
   13.1325    4.6177   26.4148 H   0  0  0  0  0  0
   15.3492    5.1929   26.4676 H   0  0  0  0  0  0
   15.6883    3.5924   25.7674 H   0  0  0  0  0  0
   15.3542    4.9774   24.7011 H   0  0  0  0  0  0
  1 26  1  0  0  0
  1 27  1  0  0  0
  1 31  1  0  0  0
  2 12  1  0  0  0
  2 14  1  0  0  0
  2 19  1  0  0  0
  3  4  1  0  0  0
  3 25  2  0  0  0
  3 32  1  0  0  0
  4  5  2  0  0  0
  4 20  1  0  0  0
  5  6  1  0  0  0
  5 33  1  0  0  0
  6 26  2  0  0  0
  6 34  1  0  0  0
  7 20  1  0  0  0
  7 21  1  0  0  0
  7 35  1  0  0  0
  7 36  1  0  0  0
  8 21  1  0  0  0
  8 24  2  0  0  0
  8 37  1  0  0  0
  9 13  2  0  0  0
  9 14  1  0  0  0
  9 20  1  0  0  0
 10 12  2  0  0  0
 10 17  1  0  0  0
 10 18  1  0  0  0
 11 16  1  0  0  0
 11 17  2  0  0  0
 11 38  1  0  0  0
 12 15  1  0  0  0
 14 39  1  0  0  0
 14 40  1  0  0  0
 15 16  2  0  0  0
 15 41  1  0  0  0
 16 42  1  0  0  0
 17 43  1  0  0  0
 18 19  2  0  0  0
 21 22  2  0  0  0
 22 23  1  0  0  0
 22 44  1  0  0  0
 23 24  1  0  0  0
 24 45  1  0  0  0
 25 26  1  0  0  0
 25 46  1  0  0  0
 27 28  2  0  0  0
 27 29  1  0  0  0
 29 30  1  0  0  0
 29 47  1  0  0  0
 30 48  1  0  0  0
 30 49  1  0  0  0
 30 50  1  0  0  0
M  END
> <s_m_entry_id>
560

> <s_m_entry_name>
7gfo.pdb.1_ligand

> <s_pdb_PDB_TITLE>
GROUP DEPOSITION SARS-COV-2 MAIN PROTEASE IN COMPLEX WITH INHIBITORS FROM THE COVID MOONSHOT -- CRYSTAL STRUCTURE OF SARS-COV-2 MAIN PROTEASE IN COMPLEX WITH ROB-IMP-E811BAFF-1 (MPRO-X11798)

> <s_pdb_PDB_ID>
7GFO

> <s_m_Source_File>
7gfo.pdb.gz

> <s_user_Compound_ID>
ROB-IMP-e811baff-1

> <s_user_Monomer-Dimer>
Monomer

> <s_user_xcode>
Mpro-x11798

$$$$
