7GFP_ligand
                    3D
 Schrodinger Suite 2021-2.
 41 42  0  0  1  0            999 V2000
    8.5059   -0.8387   20.4491 N   0  0  0  0  0  0
    5.8142   -1.6256   25.9426 C   0  0  0  0  0  0
    5.6120   -0.4793   25.1997 C   0  0  0  0  0  0
    6.5133   -0.0638   24.2406 C   0  0  0  0  0  0
    7.6702   -0.8023   24.0310 C   0  0  0  0  0  0
    8.5549   -0.5120   22.8382 C   0  0  0  0  0  0
    8.3733   -1.5124   19.2157 C   0  0  0  0  0  0
    9.2400   -2.9730   17.5355 C   0  0  0  0  0  0
   10.7355   -2.4350   19.4867 C   0  0  0  0  0  0
    7.5518   -2.4144   21.7657 O   0  0  0  0  0  0
    8.1490   -1.3512   21.6416 C   0  0  0  0  0  0
    9.4419   -2.2866   18.7266 C   0  0  0  0  0  0
    8.0195   -2.8872   16.8966 C   0  0  0  0  0  0
    6.9932   -2.1608   17.3557 N   0  0  0  0  0  0
    7.1824   -1.4808   18.4922 C   0  0  0  0  0  0
    4.1948    0.4801   25.4968 Cl  0  0  0  0  0  0
    7.9144   -1.9146   24.8293 C   0  0  0  0  0  0
    6.9821   -2.3559   25.7627 C   0  0  0  0  0  0
    7.2491   -3.5851   26.6001 C   0  0  0  0  0  0
    7.0887   -4.8829   25.9533 N   0  0  0  0  0  0
    7.6667   -5.4012   24.8648 C   0  0  0  0  0  0
    7.9400   -4.7158   23.8780 O   0  0  0  0  0  0
    7.9662   -6.8705   24.9116 C   0  0  0  0  0  0
    8.8916    0.0943   20.4759 H   0  0  0  0  0  0
    5.0681   -1.9461   26.6548 H   0  0  0  0  0  0
    6.3148    0.8268   23.6629 H   0  0  0  0  0  0
    9.5924   -0.7249   23.0956 H   0  0  0  0  0  0
    8.4826    0.5449   22.5815 H   0  0  0  0  0  0
   10.0357   -3.5696   17.1145 H   0  0  0  0  0  0
   11.4164   -3.0743   18.9247 H   0  0  0  0  0  0
   11.1904   -1.4543   19.6258 H   0  0  0  0  0  0
   10.5364   -2.8839   20.4598 H   0  0  0  0  0  0
    7.8539   -3.4243   15.9743 H   0  0  0  0  0  0
    6.3528   -0.8852   18.8434 H   0  0  0  0  0  0
    8.8440   -2.4556   24.7319 H   0  0  0  0  0  0
    6.6266   -3.5513   27.4942 H   0  0  0  0  0  0
    8.2505   -3.5182   27.0251 H   0  0  0  0  0  0
    6.4120   -5.4242   26.4720 H   0  0  0  0  0  0
    8.4330   -7.1767   23.9754 H   0  0  0  0  0  0
    8.6440   -7.0775   25.7397 H   0  0  0  0  0  0
    7.0394   -7.4264   25.0537 H   0  0  0  0  0  0
  1  7  1  0  0  0
  1 11  1  0  0  0
  1 24  1  0  0  0
  2  3  1  0  0  0
  2 18  2  0  0  0
  2 25  1  0  0  0
  3  4  2  0  0  0
  3 16  1  0  0  0
  4  5  1  0  0  0
  4 26  1  0  0  0
  5  6  1  0  0  0
  5 17  2  0  0  0
  6 11  1  0  0  0
  6 27  1  0  0  0
  6 28  1  0  0  0
  7 12  1  0  0  0
  7 15  2  0  0  0
  8 12  2  0  0  0
  8 13  1  0  0  0
  8 29  1  0  0  0
  9 12  1  0  0  0
  9 30  1  0  0  0
  9 31  1  0  0  0
  9 32  1  0  0  0
 10 11  2  0  0  0
 13 14  2  0  0  0
 13 33  1  0  0  0
 14 15  1  0  0  0
 15 34  1  0  0  0
 17 18  1  0  0  0
 17 35  1  0  0  0
 18 19  1  0  0  0
 19 20  1  0  0  0
 19 36  1  0  0  0
 19 37  1  0  0  0
 20 21  1  0  0  0
 20 38  1  0  0  0
 21 22  2  0  0  0
 21 23  1  0  0  0
 23 39  1  0  0  0
 23 40  1  0  0  0
 23 41  1  0  0  0
M  END
> <s_m_entry_id>
562

> <s_m_entry_name>
7gfp.pdb.1_ligand

> <s_pdb_PDB_TITLE>
GROUP DEPOSITION SARS-COV-2 MAIN PROTEASE IN COMPLEX WITH INHIBITORS FROM THE COVID MOONSHOT -- CRYSTAL STRUCTURE OF SARS-COV-2 MAIN PROTEASE IN COMPLEX WITH RAL-THA-6B94CEBA-5 (MPRO-X11801)

> <s_pdb_PDB_ID>
7GFP

> <s_m_Source_File>
7gfp.pdb.gz

> <s_user_Compound_ID>
RAL-THA-6b94ceba-5

> <s_user_Monomer-Dimer>
Monomer

> <s_user_xcode>
Mpro-x11801

$$$$
