7GFQ_ligand
                    3D
 Schrodinger Suite 2021-2.
 36 38  0  0  1  0            999 V2000
    8.6242   -1.0288   20.7154 N   0  0  0  0  0  0
    7.1607   -1.5001   18.7949 C   0  0  0  0  0  0
    8.3775   -1.6417   19.4650 C   0  0  0  0  0  0
    8.1567   -1.4561   21.9072 C   0  0  0  0  0  0
    8.6805   -0.6784   23.1137 C   0  0  2  0  0  0
   10.0745   -1.2043   23.5064 C   0  0  0  0  0  0
    7.9306   -1.7268   25.2880 C   0  0  0  0  0  0
    5.4834   -0.4977   25.1487 C   0  0  0  0  0  0
    7.6790   -0.8341   24.2407 C   0  0  0  0  0  0
    3.9636    0.3477   25.1075 Cl  0  0  0  0  0  0
    5.7225   -1.4057   26.1593 C   0  0  0  0  0  0
    6.9641   -2.0118   26.2422 C   0  0  0  0  0  0
    6.4380   -0.2005   24.1978 C   0  0  0  0  0  0
    9.1412   -2.3586   25.4557 O   0  0  0  0  0  0
    9.9465   -2.5010   24.2641 C   0  0  0  0  0  0
    7.3864   -2.4017   22.0294 O   0  0  0  0  0  0
    9.3810   -2.4366   18.8811 C   0  0  0  0  0  0
   10.6884   -2.7121   19.5798 C   0  0  0  0  0  0
    6.9009   -2.0691   17.6146 N   0  0  0  0  0  0
    7.8702   -2.8093   17.0615 C   0  0  0  0  0  0
    9.1020   -3.0149   17.6483 C   0  0  0  0  0  0
    9.1948   -0.1969   20.7662 H   0  0  0  0  0  0
    6.3707   -0.9058   19.2298 H   0  0  0  0  0  0
    8.7591    0.3765   22.8505 H   0  0  0  0  0  0
   10.5779   -0.4668   24.1314 H   0  0  0  0  0  0
   10.6680   -1.3666   22.6066 H   0  0  0  0  0  0
    4.9457   -1.6357   26.8735 H   0  0  0  0  0  0
    7.1830   -2.7027   27.0429 H   0  0  0  0  0  0
    6.2226    0.5210   23.4235 H   0  0  0  0  0  0
   10.9385   -2.8603   24.5378 H   0  0  0  0  0  0
    9.5042   -3.2575   23.6158 H   0  0  0  0  0  0
   11.3117   -3.3456   18.9488 H   0  0  0  0  0  0
   11.2041   -1.7710   19.7711 H   0  0  0  0  0  0
   10.4959   -3.2191   20.5253 H   0  0  0  0  0  0
    7.7082   -3.2835   16.1049 H   0  0  0  0  0  0
    9.8473   -3.6212   17.1551 H   0  0  0  0  0  0
  1  3  1  0  0  0
  1  4  1  0  0  0
  1 22  1  0  0  0
  2  3  1  0  0  0
  2 19  2  0  0  0
  2 23  1  0  0  0
  3 17  2  0  0  0
  4  5  1  0  0  0
  4 16  2  0  0  0
  5  6  1  0  0  0
  5  9  1  0  0  0
  5 24  1  0  0  0
  6 15  1  0  0  0
  6 25  1  0  0  0
  6 26  1  0  0  0
  7  9  1  0  0  0
  7 12  2  0  0  0
  7 14  1  0  0  0
  8 10  1  0  0  0
  8 11  2  0  0  0
  8 13  1  0  0  0
  9 13  2  0  0  0
 11 12  1  0  0  0
 11 27  1  0  0  0
 12 28  1  0  0  0
 13 29  1  0  0  0
 14 15  1  0  0  0
 15 30  1  0  0  0
 15 31  1  0  0  0
 17 18  1  0  0  0
 17 21  1  0  0  0
 18 32  1  0  0  0
 18 33  1  0  0  0
 18 34  1  0  0  0
 19 20  1  0  0  0
 20 21  2  0  0  0
 20 35  1  0  0  0
 21 36  1  0  0  0
M  END
> <s_m_entry_id>
564

> <s_m_entry_name>
7gfq.pdb.1_ligand

> <s_pdb_PDB_TITLE>
GROUP DEPOSITION SARS-COV-2 MAIN PROTEASE IN COMPLEX WITH INHIBITORS FROM THE COVID MOONSHOT -- CRYSTAL STRUCTURE OF SARS-COV-2 MAIN PROTEASE IN COMPLEX WITH MAT-POS-B3E365B9-3 (MPRO-X11809)

> <s_pdb_PDB_ID>
7GFQ

> <s_m_Source_File>
7gfq.pdb.gz

> <s_user_Compound_ID>
MAT-POS-b3e365b9-3

> <s_user_Monomer-Dimer>
Monomer

> <s_user_xcode>
Mpro-x11809

$$$$
