7GFR_ligand
                    3D
 Schrodinger Suite 2021-2.
 33 35  0  0  1  0            999 V2000
    8.5900   -0.7753   20.4186 N   0  0  0  0  0  0
    8.5598   -0.3526   22.7915 C   0  0  0  0  0  0
    8.1132   -1.1845   21.6037 C   0  0  0  0  0  0
    8.4000   -1.4087   19.1770 C   0  0  0  0  0  0
    7.1985   -1.3875   18.4752 C   0  0  0  0  0  0
    7.9473   -2.7963   16.8489 C   0  0  0  0  0  0
   10.2301   -3.7804   16.9481 C   0  0  0  0  0  0
   10.7081   -2.3878   19.3061 C   0  0  0  0  0  0
    6.4524    0.0949   24.0854 C   0  0  0  0  0  0
    7.3798   -2.1649   21.7279 O   0  0  0  0  0  0
    7.6573   -0.5796   23.9808 C   0  0  0  0  0  0
    8.0131   -1.5778   24.8092 N   0  0  0  0  0  0
    7.1223   -1.9590   25.7396 C   0  0  0  0  0  0
    5.8748   -1.3836   25.8900 C   0  0  0  0  0  0
    5.5663   -0.3381   25.0488 C   0  0  0  0  0  0
    4.0423    0.4858   25.2224 Cl  0  0  0  0  0  0
    9.4586   -2.2056   18.6535 C   0  0  0  0  0  0
   11.6529   -3.2293   18.7891 C   0  0  0  0  0  0
   11.4158   -3.9196   17.6104 C   0  0  0  0  0  0
    9.2220   -2.9232   17.4503 C   0  0  0  0  0  0
    6.9633   -2.0565   17.3409 N   0  0  0  0  0  0
    9.1462    0.0658   20.3613 H   0  0  0  0  0  0
    8.5451    0.7032   22.5211 H   0  0  0  0  0  0
    9.5831   -0.6185   23.0565 H   0  0  0  0  0  0
    6.3698   -0.7993   18.8408 H   0  0  0  0  0  0
    7.7287   -3.3216   15.9309 H   0  0  0  0  0  0
   10.0554   -4.3267   16.0331 H   0  0  0  0  0  0
   10.9209   -1.8577   20.2227 H   0  0  0  0  0  0
    6.2387    0.9239   23.4270 H   0  0  0  0  0  0
    7.3651   -2.7580   26.4244 H   0  0  0  0  0  0
    5.1945   -1.7577   26.6408 H   0  0  0  0  0  0
   12.5954   -3.3618   19.2995 H   0  0  0  0  0  0
   12.1806   -4.5728   17.2170 H   0  0  0  0  0  0
  1  3  1  0  0  0
  1  4  1  0  0  0
  1 22  1  0  0  0
  2  3  1  0  0  0
  2 11  1  0  0  0
  2 23  1  0  0  0
  2 24  1  0  0  0
  3 10  2  0  0  0
  4  5  2  0  0  0
  4 17  1  0  0  0
  5 21  1  0  0  0
  5 25  1  0  0  0
  6 20  1  0  0  0
  6 21  2  0  0  0
  6 26  1  0  0  0
  7 19  1  0  0  0
  7 20  2  0  0  0
  7 27  1  0  0  0
  8 17  2  0  0  0
  8 18  1  0  0  0
  8 28  1  0  0  0
  9 11  1  0  0  0
  9 15  2  0  0  0
  9 29  1  0  0  0
 11 12  2  0  0  0
 12 13  1  0  0  0
 13 14  2  0  0  0
 13 30  1  0  0  0
 14 15  1  0  0  0
 14 31  1  0  0  0
 15 16  1  0  0  0
 17 20  1  0  0  0
 18 19  2  0  0  0
 18 32  1  0  0  0
 19 33  1  0  0  0
M  END
> <s_m_entry_id>
566

> <s_m_entry_name>
7gfr.pdb.1_ligand

> <s_pdb_PDB_TITLE>
GROUP DEPOSITION SARS-COV-2 MAIN PROTEASE IN COMPLEX WITH INHIBITORS FROM THE COVID MOONSHOT -- CRYSTAL STRUCTURE OF SARS-COV-2 MAIN PROTEASE IN COMPLEX WITH PET-UNK-3C72D439-1 (MPRO-X11810)

> <s_pdb_PDB_ID>
7GFR

> <s_m_Source_File>
7gfr.pdb.gz

> <s_user_Compound_ID>
PET-UNK-3c72d439-1

> <s_user_Monomer-Dimer>
Monomer

> <s_user_xcode>
Mpro-x11810

$$$$
