7GFS_ligand
                    3D
 Schrodinger Suite 2021-2.
 43 46  0  0  1  0            999 V2000
    8.2996    0.3951   23.8225 N   0  0  0  0  0  0
    8.7429   -1.0392   21.8707 C   0  0  0  0  0  0
    7.6449    0.6496   25.0544 C   0  0  0  0  0  0
    8.2847    1.3859   26.0582 C   0  0  0  0  0  0
    7.6663    1.5780   27.2878 C   0  0  0  0  0  0
    6.4160    1.0471   27.5322 C   0  0  0  0  0  0
    6.3608    0.1401   25.3045 C   0  0  0  0  0  0
    7.9118   -2.6633   17.1052 C   0  0  0  0  0  0
   10.0798   -3.8889   17.1491 C   0  0  0  0  0  0
   11.8072   -3.1379   18.6224 C   0  0  0  0  0  0
    9.7857    1.2352   19.2659 O   0  0  0  0  0  0
    9.3306    0.2486   19.8227 C   0  0  0  0  0  0
    8.8255   -0.9027   19.0013 C   0  0  0  0  0  0
    9.7041   -1.9380   18.5780 C   0  0  0  0  0  0
   11.0171   -2.1250   19.0834 C   0  0  0  0  0  0
   11.3403   -4.0153   17.6584 C   0  0  0  0  0  0
    9.2297   -2.8466   17.5909 C   0  0  0  0  0  0
    7.0938   -1.7018   17.5129 N   0  0  0  0  0  0
    7.5564   -0.8420   18.4289 C   0  0  0  0  0  0
    9.3102    0.1224   21.1693 N   0  0  0  0  0  0
    7.7133   -0.5818   22.8929 C   0  0  0  0  0  0
    8.8843    1.5516   23.1280 C   0  0  0  0  0  0
    9.9052    1.1149   22.0755 C   0  0  0  0  0  0
    5.7640    0.3372   26.5439 C   0  0  0  0  0  0
    9.5407   -1.5826   22.3771 H   0  0  0  0  0  0
    8.2675   -1.7028   21.1484 H   0  0  0  0  0  0
    9.2628    1.8072   25.8787 H   0  0  0  0  0  0
    8.1641    2.1460   28.0598 H   0  0  0  0  0  0
    5.9488    1.1872   28.4957 H   0  0  0  0  0  0
    5.8366   -0.4051   24.5335 H   0  0  0  0  0  0
    7.5152   -3.3308   16.3545 H   0  0  0  0  0  0
    9.7257   -4.5864   16.4045 H   0  0  0  0  0  0
   12.8078   -3.2613   19.0097 H   0  0  0  0  0  0
   11.3890   -1.4529   19.8427 H   0  0  0  0  0  0
   11.9866   -4.8072   17.3098 H   0  0  0  0  0  0
    6.8698   -0.0607   18.7194 H   0  0  0  0  0  0
    6.8663   -0.1291   22.3773 H   0  0  0  0  0  0
    7.3504   -1.4435   23.4532 H   0  0  0  0  0  0
    9.3687    2.2041   23.8545 H   0  0  0  0  0  0
    8.0915    2.1255   22.6482 H   0  0  0  0  0  0
   10.2286    1.9831   21.5012 H   0  0  0  0  0  0
   10.7735    0.6799   22.5705 H   0  0  0  0  0  0
    4.7815   -0.0705   26.7307 H   0  0  0  0  0  0
  1  3  1  0  0  0
  1 21  1  0  0  0
  1 22  1  0  0  0
  2 20  1  0  0  0
  2 21  1  0  0  0
  2 25  1  0  0  0
  2 26  1  0  0  0
  3  4  1  0  0  0
  3  7  2  0  0  0
  4  5  2  0  0  0
  4 27  1  0  0  0
  5  6  1  0  0  0
  5 28  1  0  0  0
  6 24  2  0  0  0
  6 29  1  0  0  0
  7 24  1  0  0  0
  7 30  1  0  0  0
  8 17  1  0  0  0
  8 18  2  0  0  0
  8 31  1  0  0  0
  9 16  1  0  0  0
  9 17  2  0  0  0
  9 32  1  0  0  0
 10 15  1  0  0  0
 10 16  2  0  0  0
 10 33  1  0  0  0
 11 12  2  0  0  0
 12 13  1  0  0  0
 12 20  1  0  0  0
 13 14  1  0  0  0
 13 19  2  0  0  0
 14 15  2  0  0  0
 14 17  1  0  0  0
 15 34  1  0  0  0
 16 35  1  0  0  0
 18 19  1  0  0  0
 19 36  1  0  0  0
 20 23  1  0  0  0
 21 37  1  0  0  0
 21 38  1  0  0  0
 22 23  1  0  0  0
 22 39  1  0  0  0
 22 40  1  0  0  0
 23 41  1  0  0  0
 23 42  1  0  0  0
 24 43  1  0  0  0
M  END
> <s_m_entry_id>
568

> <s_m_entry_name>
7gfs.pdb.1_ligand

> <s_pdb_PDB_TITLE>
GROUP DEPOSITION SARS-COV-2 MAIN PROTEASE IN COMPLEX WITH INHIBITORS FROM THE COVID MOONSHOT -- CRYSTAL STRUCTURE OF SARS-COV-2 MAIN PROTEASE IN COMPLEX WITH MAR-UCB-F313EC4D-6 (MPRO-X11812)

> <s_pdb_PDB_ID>
7GFS

> <s_m_Source_File>
7gfs.pdb.gz

> <s_user_Compound_ID>
MAR-UCB-f313ec4d-6

> <s_user_Monomer-Dimer>
Monomer

> <s_user_xcode>
Mpro-x11812

$$$$
