7GFT_ligand
                    3D
 Schrodinger Suite 2021-2.
 42 44  0  0  1  0            999 V2000
    7.2394   -1.8907   17.3177 N   0  0  0  0  0  0
    5.4361    0.1336   25.9222 C   0  0  0  0  0  0
    6.3388    0.4845   24.9316 C   0  0  0  0  0  0
    7.2155   -0.4689   24.4357 C   0  0  0  0  0  0
    8.5941    1.0676   23.1850 C   0  0  0  0  0  0
    9.4952    1.0044   21.9839 C   0  0  0  0  0  0
    8.8890   -1.0009   18.8439 C   0  0  0  0  0  0
    9.4332   -2.9160   17.4420 C   0  0  0  0  0  0
   11.6005   -3.9729   17.5656 C   0  0  0  0  0  0
   11.1284   -2.1244   19.0045 C   0  0  0  0  0  0
    9.9057    1.1226   19.2510 O   0  0  0  0  0  0
    9.3011    0.1565   19.7068 C   0  0  0  0  0  0
    9.8275   -1.9920   18.4497 C   0  0  0  0  0  0
   11.9830   -3.0939   18.5650 C   0  0  0  0  0  0
   10.3574   -3.9013   17.0128 C   0  0  0  0  0  0
    8.1194   -2.8060   16.9275 C   0  0  0  0  0  0
    7.6322   -1.0065   18.2429 C   0  0  0  0  0  0
    9.0138    0.0398   21.0037 N   0  0  0  0  0  0
    8.0818   -0.2571   23.3950 O   0  0  0  0  0  0
    7.1913   -1.7829   24.9482 C   0  0  0  0  0  0
    8.0956   -2.6452   24.3881 O   0  0  0  0  0  0
    8.1161   -3.9912   24.8640 C   0  0  0  0  0  0
    5.4101   -1.1565   26.4266 C   0  0  0  0  0  0
    6.2809   -2.1196   25.9420 C   0  0  0  0  0  0
    4.7447    0.8684   26.3076 H   0  0  0  0  0  0
    6.3567    1.4949   24.5506 H   0  0  0  0  0  0
    7.7672    1.7483   22.9823 H   0  0  0  0  0  0
    9.1724    1.3751   24.0563 H   0  0  0  0  0  0
   10.5016    0.7292   22.2996 H   0  0  0  0  0  0
    9.5554    1.9904   21.5232 H   0  0  0  0  0  0
   12.2907   -4.7263   17.2157 H   0  0  0  0  0  0
   11.4535   -1.4526   19.7852 H   0  0  0  0  0  0
   12.9662   -3.1713   19.0050 H   0  0  0  0  0  0
   10.0785   -4.6036   16.2412 H   0  0  0  0  0  0
    7.8483   -3.5280   16.1714 H   0  0  0  0  0  0
    6.9558   -0.2308   18.5702 H   0  0  0  0  0  0
    8.4490   -0.7321   21.3283 H   0  0  0  0  0  0
    8.8808   -4.5545   24.3293 H   0  0  0  0  0  0
    8.3406   -3.9966   25.9306 H   0  0  0  0  0  0
    7.1424   -4.4514   24.6959 H   0  0  0  0  0  0
    4.7074   -1.4184   27.2038 H   0  0  0  0  0  0
    6.2550   -3.1264   26.3319 H   0  0  0  0  0  0
  1 16  2  0  0  0
  1 17  1  0  0  0
  2  3  1  0  0  0
  2 23  2  0  0  0
  2 25  1  0  0  0
  3  4  2  0  0  0
  3 26  1  0  0  0
  4 19  1  0  0  0
  4 20  1  0  0  0
  5  6  1  0  0  0
  5 19  1  0  0  0
  5 27  1  0  0  0
  5 28  1  0  0  0
  6 18  1  0  0  0
  6 29  1  0  0  0
  6 30  1  0  0  0
  7 12  1  0  0  0
  7 13  1  0  0  0
  7 17  2  0  0  0
  8 13  1  0  0  0
  8 15  2  0  0  0
  8 16  1  0  0  0
  9 14  2  0  0  0
  9 15  1  0  0  0
  9 31  1  0  0  0
 10 13  2  0  0  0
 10 14  1  0  0  0
 10 32  1  0  0  0
 11 12  2  0  0  0
 12 18  1  0  0  0
 14 33  1  0  0  0
 15 34  1  0  0  0
 16 35  1  0  0  0
 17 36  1  0  0  0
 18 37  1  0  0  0
 20 21  1  0  0  0
 20 24  2  0  0  0
 21 22  1  0  0  0
 22 38  1  0  0  0
 22 39  1  0  0  0
 22 40  1  0  0  0
 23 24  1  0  0  0
 23 41  1  0  0  0
 24 42  1  0  0  0
M  END
> <s_m_entry_id>
570

> <s_m_entry_name>
7gft.pdb.1_ligand

> <s_pdb_PDB_TITLE>
GROUP DEPOSITION SARS-COV-2 MAIN PROTEASE IN COMPLEX WITH INHIBITORS FROM THE COVID MOONSHOT -- CRYSTAL STRUCTURE OF SARS-COV-2 MAIN PROTEASE IN COMPLEX WITH MAR-UCB-F313EC4D-2 (MPRO-X11813)

> <s_pdb_PDB_ID>
7GFT

> <s_m_Source_File>
7gft.pdb.gz

> <s_user_Compound_ID>
MAR-UCB-f313ec4d-2

> <s_user_Monomer-Dimer>
Monomer

> <s_user_xcode>
Mpro-x11813

$$$$
