7GFU_ligand
                    3D
 Schrodinger Suite 2021-2.
 39 42  0  0  1  0            999 V2000
    6.9797   -2.0260   17.2212 N   0  0  0  0  0  0
    9.2897   -2.8772   26.0182 C   0  0  0  0  0  0
    8.0179   -1.3948   24.8491 C   0  0  0  0  0  0
    7.5717   -0.4591   23.9125 C   0  0  0  0  0  0
    8.4082   -0.0967   22.7079 C   0  0  0  0  0  0
    8.0666   -1.0825   21.6089 C   0  0  0  0  0  0
    7.1359   -1.2381   18.2888 C   0  0  0  0  0  0
   10.3024   -3.6636   17.1822 C   0  0  0  0  0  0
   11.6072   -2.8814   19.0236 C   0  0  0  0  0  0
    9.3120   -2.1222   18.8104 C   0  0  0  0  0  0
    7.6538   -2.2105   21.8578 O   0  0  0  0  0  0
    9.2432   -2.0228   24.8391 O   0  0  0  0  0  0
    7.8996   -2.8780   26.6561 C   0  0  0  0  0  0
    7.1925   -1.8004   25.8823 C   0  0  0  0  0  0
    5.9197   -1.2585   26.0204 C   0  0  0  0  0  0
    6.2988    0.0871   24.0654 C   0  0  0  0  0  0
    5.4976   -0.3116   25.1146 C   0  0  0  0  0  0
    3.9295    0.4209   25.3130 Cl  0  0  0  0  0  0
    8.1237   -0.5859   20.3718 N   0  0  0  0  0  0
    8.2432   -1.2210   19.1280 C   0  0  0  0  0  0
   10.5548   -2.1497   19.4996 C   0  0  0  0  0  0
   11.4834   -3.6274   17.8648 C   0  0  0  0  0  0
    9.1878   -2.9135   17.6320 C   0  0  0  0  0  0
    7.9845   -2.8152   16.8975 C   0  0  0  0  0  0
   10.0142   -2.4775   26.7276 H   0  0  0  0  0  0
    9.5530   -3.8922   25.7207 H   0  0  0  0  0  0
    9.4648   -0.1863   22.9599 H   0  0  0  0  0  0
    8.1559    0.9122   22.3814 H   0  0  0  0  0  0
    6.3600   -0.5380   18.5614 H   0  0  0  0  0  0
   10.2119   -4.2675   16.2914 H   0  0  0  0  0  0
   12.5484   -2.8813   19.5533 H   0  0  0  0  0  0
    7.9835   -2.5742   27.6995 H   0  0  0  0  0  0
    7.4162   -3.8354   26.4615 H   0  0  0  0  0  0
    5.2800   -1.5815   26.8284 H   0  0  0  0  0  0
    5.9391    0.8233   23.3618 H   0  0  0  0  0  0
    8.0790    0.4125   20.2258 H   0  0  0  0  0  0
   10.6608   -1.5816   20.4119 H   0  0  0  0  0  0
   12.3342   -4.1848   17.5018 H   0  0  0  0  0  0
    7.9183   -3.4415   16.0201 H   0  0  0  0  0  0
  1  7  1  0  0  0
  1 24  2  0  0  0
  2 12  1  0  0  0
  2 13  1  0  0  0
  2 25  1  0  0  0
  2 26  1  0  0  0
  3  4  1  0  0  0
  3 12  1  0  0  0
  3 14  2  0  0  0
  4  5  1  0  0  0
  4 16  2  0  0  0
  5  6  1  0  0  0
  5 27  1  0  0  0
  5 28  1  0  0  0
  6 11  2  0  0  0
  6 19  1  0  0  0
  7 20  2  0  0  0
  7 29  1  0  0  0
  8 22  1  0  0  0
  8 23  2  0  0  0
  8 30  1  0  0  0
  9 21  1  0  0  0
  9 22  2  0  0  0
  9 31  1  0  0  0
 10 20  1  0  0  0
 10 21  2  0  0  0
 10 23  1  0  0  0
 13 14  1  0  0  0
 13 32  1  0  0  0
 13 33  1  0  0  0
 14 15  1  0  0  0
 15 17  2  0  0  0
 15 34  1  0  0  0
 16 17  1  0  0  0
 16 35  1  0  0  0
 17 18  1  0  0  0
 19 20  1  0  0  0
 19 36  1  0  0  0
 21 37  1  0  0  0
 22 38  1  0  0  0
 23 24  1  0  0  0
 24 39  1  0  0  0
M  END
> <s_m_entry_id>
572

> <s_m_entry_name>
7gfu.pdb.1_ligand

> <s_pdb_PDB_TITLE>
GROUP DEPOSITION SARS-COV-2 MAIN PROTEASE IN COMPLEX WITH INHIBITORS FROM THE COVID MOONSHOT -- CRYSTAL STRUCTURE OF SARS-COV-2 MAIN PROTEASE IN COMPLEX WITH MAT-POS-BBBBC21A-3 (MPRO-X11831)

> <s_pdb_PDB_ID>
7GFU

> <s_m_Source_File>
7gfu.pdb.gz

> <s_user_Compound_ID>
MAT-POS-bbbbc21a-3

> <s_user_Monomer-Dimer>
Monomer

> <s_user_xcode>
Mpro-x11831

$$$$
