7GFX_ligand
                    3D
 Schrodinger Suite 2021-2.
 35 37  0  0  1  0            999 V2000
    6.9714   -2.0567   17.3741 N   0  0  0  0  0  0
    7.6221   -0.7335   24.0751 C   0  0  0  0  0  0
    8.5551   -0.5248   22.9072 C   0  0  0  0  0  0
    8.1165   -1.3549   21.7179 C   0  0  0  0  0  0
    8.3107   -1.5495   19.2930 C   0  0  0  0  0  0
    7.1427   -1.4400   18.5451 C   0  0  0  0  0  0
    9.1802   -2.9886   17.5671 C   0  0  0  0  0  0
   10.6608   -2.7132   19.4256 C   0  0  0  0  0  0
    6.3659   -0.1372   24.0814 C   0  0  0  0  0  0
    7.4600   -2.3813   21.8535 O   0  0  0  0  0  0
    7.9622   -1.5872   25.1147 C   0  0  0  0  0  0
    7.0522   -1.8842   26.1158 C   0  0  0  0  0  0
    5.7911   -1.3080   26.1074 C   0  0  0  0  0  0
    5.4791   -0.4203   25.1005 C   0  0  0  0  0  0
    3.9620    0.4354   25.1603 Cl  0  0  0  0  0  0
    8.5142   -0.8857   20.5221 N   0  0  0  0  0  0
    9.3452   -2.3512   18.7929 C   0  0  0  0  0  0
   11.4249   -3.4079   18.2964 C   0  0  0  0  0  0
   10.4004   -3.8051   17.2283 C   0  0  0  0  0  0
    7.9827   -2.7996   16.9118 C   0  0  0  0  0  0
    9.5669   -0.8099   23.1955 H   0  0  0  0  0  0
    8.5611    0.5298   22.6314 H   0  0  0  0  0  0
    6.3545   -0.8232   18.9510 H   0  0  0  0  0  0
   10.4884   -3.4236   20.2341 H   0  0  0  0  0  0
   11.1871   -1.8017   19.7091 H   0  0  0  0  0  0
    6.0877    0.5442   23.2910 H   0  0  0  0  0  0
    8.9470   -2.0293   25.1502 H   0  0  0  0  0  0
    7.3237   -2.5670   26.9073 H   0  0  0  0  0  0
    5.0780   -1.5579   26.8790 H   0  0  0  0  0  0
    8.9949    0.0005   20.4618 H   0  0  0  0  0  0
   11.9102   -4.3035   18.6843 H   0  0  0  0  0  0
   12.1467   -2.7136   17.8662 H   0  0  0  0  0  0
   10.7704   -3.5104   16.2463 H   0  0  0  0  0  0
   10.1652   -4.8645   17.3305 H   0  0  0  0  0  0
    7.8921   -3.3030   15.9606 H   0  0  0  0  0  0
  1  6  1  0  0  0
  1 20  2  0  0  0
  2  3  1  0  0  0
  2  9  1  0  0  0
  2 11  2  0  0  0
  3  4  1  0  0  0
  3 21  1  0  0  0
  3 22  1  0  0  0
  4 10  2  0  0  0
  4 16  1  0  0  0
  5  6  2  0  0  0
  5 16  1  0  0  0
  5 17  1  0  0  0
  6 23  1  0  0  0
  7 17  2  0  0  0
  7 19  1  0  0  0
  7 20  1  0  0  0
  8 17  1  0  0  0
  8 18  1  0  0  0
  8 24  1  0  0  0
  8 25  1  0  0  0
  9 14  2  0  0  0
  9 26  1  0  0  0
 11 12  1  0  0  0
 11 27  1  0  0  0
 12 13  2  0  0  0
 12 28  1  0  0  0
 13 14  1  0  0  0
 13 29  1  0  0  0
 14 15  1  0  0  0
 16 30  1  0  0  0
 18 19  1  0  0  0
 18 31  1  0  0  0
 18 32  1  0  0  0
 19 33  1  0  0  0
 19 34  1  0  0  0
 20 35  1  0  0  0
M  END
> <s_m_entry_id>
574

> <s_m_entry_name>
7gfx.pdb.1_ligand

> <s_pdb_PDB_TITLE>
GROUP DEPOSITION SARS-COV-2 MAIN PROTEASE IN COMPLEX WITH INHIBITORS FROM THE COVID MOONSHOT -- CRYSTAL STRUCTURE OF SARS-COV-2 MAIN PROTEASE IN COMPLEX WITH MAT-POS-199E2E7C-1 (MPRO-X12000)

> <s_pdb_PDB_ID>
7GFX

> <s_m_Source_File>
7gfx.pdb.gz

> <s_user_Compound_ID>
MAT-POS-199e2e7c-1

> <s_user_Monomer-Dimer>
Monomer

> <s_user_xcode>
Mpro-x12000

$$$$
