7GG0_ligand
                    3D
 Schrodinger Suite 2021-2.
 31 33  0  0  1  0            999 V2000
    6.8329   -1.1806   18.8488 N   0  0  0  0  0  0
    8.9024   -1.9995   18.8724 N   0  0  0  0  0  0
    7.6025   -0.7655   24.2981 C   0  0  0  0  0  0
    8.5535   -0.5504   23.1477 C   0  0  0  0  0  0
    8.0664   -1.3133   21.9324 C   0  0  0  0  0  0
    7.9651   -1.2318   19.5275 C   0  0  0  0  0  0
    8.2469   -2.4200   17.7200 C   0  0  0  0  0  0
   10.2435   -3.6145   17.1140 C   0  0  0  0  0  0
    6.3877   -0.0914   24.3277 C   0  0  0  0  0  0
    7.4837   -2.3926   22.0211 O   0  0  0  0  0  0
    7.8607   -1.7249   25.2676 C   0  0  0  0  0  0
    6.9084   -2.0399   26.2263 C   0  0  0  0  0  0
    5.6852   -1.3911   26.2339 C   0  0  0  0  0  0
    5.4517   -0.4137   25.2866 C   0  0  0  0  0  0
    3.9440    0.4523   25.3076 Cl  0  0  0  0  0  0
    8.2659   -0.6844   20.7451 N   0  0  0  0  0  0
    7.0112   -1.9406   17.6908 N   0  0  0  0  0  0
   10.2035   -2.3709   19.1608 C   0  0  0  0  0  0
   10.8723   -3.1671   18.2986 C   0  0  0  0  0  0
    8.9537   -3.2543   16.8235 C   0  0  0  0  0  0
    9.5458   -0.9056   23.4257 H   0  0  0  0  0  0
    8.6044    0.5128   22.9127 H   0  0  0  0  0  0
   10.7804   -4.2487   16.4241 H   0  0  0  0  0  0
    6.1808    0.6808   23.6016 H   0  0  0  0  0  0
    8.8119   -2.2361   25.2817 H   0  0  0  0  0  0
    7.1200   -2.7936   26.9703 H   0  0  0  0  0  0
    4.9394   -1.6533   26.9698 H   0  0  0  0  0  0
    8.6592    0.2457   20.7261 H   0  0  0  0  0  0
   10.6754   -2.0245   20.0684 H   0  0  0  0  0  0
   11.8885   -3.4619   18.5150 H   0  0  0  0  0  0
    8.4766   -3.6018   15.9191 H   0  0  0  0  0  0
  1  6  2  0  0  0
  1 17  1  0  0  0
  2  6  1  0  0  0
  2  7  1  0  0  0
  2 18  1  0  0  0
  3  4  1  0  0  0
  3  9  1  0  0  0
  3 11  2  0  0  0
  4  5  1  0  0  0
  4 21  1  0  0  0
  4 22  1  0  0  0
  5 10  2  0  0  0
  5 16  1  0  0  0
  6 16  1  0  0  0
  7 17  2  0  0  0
  7 20  1  0  0  0
  8 19  1  0  0  0
  8 20  2  0  0  0
  8 23  1  0  0  0
  9 14  2  0  0  0
  9 24  1  0  0  0
 11 12  1  0  0  0
 11 25  1  0  0  0
 12 13  2  0  0  0
 12 26  1  0  0  0
 13 14  1  0  0  0
 13 27  1  0  0  0
 14 15  1  0  0  0
 16 28  1  0  0  0
 18 19  2  0  0  0
 18 29  1  0  0  0
 19 30  1  0  0  0
 20 31  1  0  0  0
M  END
> <s_m_entry_id>
579

> <s_m_entry_name>
7gg0.pdb.1_ligand

> <s_pdb_PDB_TITLE>
GROUP DEPOSITION SARS-COV-2 MAIN PROTEASE IN COMPLEX WITH INHIBITORS FROM THE COVID MOONSHOT -- CRYSTAL STRUCTURE OF SARS-COV-2 MAIN PROTEASE IN COMPLEX WITH PET-UNK-E44FFD04-1 (MPRO-X12026)

> <s_pdb_PDB_ID>
7GG0

> <s_m_Source_File>
7gg0.pdb.gz

> <s_user_Compound_ID>
PET-UNK-e44ffd04-1

> <s_user_Monomer-Dimer>
Monomer

> <s_user_xcode>
Mpro-x12026

$$$$
