7GG1_ligand
                    3D
 Schrodinger Suite 2021-2.
 44 47  0  0  1  0            999 V2000
    8.6155   -3.0800   17.2342 N   0  0  0  0  0  0
    6.7019   -2.0346   25.6925 C   0  0  0  0  0  0
    6.9920   -0.9204   24.9187 C   0  0  0  0  0  0
    8.3101   -0.5142   24.7724 C   0  0  0  0  0  0
    8.0479    0.8176   22.7530 C   0  0  0  0  0  0
    8.0325   -0.3614   21.7672 C   0  0  0  0  0  0
    9.3987    0.3086   19.6606 C   0  0  0  0  0  0
    7.5651   -2.2791   17.5933 C   0  0  0  0  0  0
   10.9291   -3.7772   17.2782 C   0  0  0  0  0  0
   12.5010   -2.6051   18.6600 C   0  0  0  0  0  0
    6.4249   -2.5482   17.2138 O   0  0  0  0  0  0
    7.8838   -1.1812   18.4487 C   0  0  0  0  0  0
    9.9208   -2.9120   17.6864 C   0  0  0  0  0  0
   10.2169   -1.8552   18.5691 C   0  0  0  0  0  0
   11.5119   -1.7281   19.0698 C   0  0  0  0  0  0
   12.2149   -3.6103   17.7627 C   0  0  0  0  0  0
    9.1357   -0.9421   18.9121 C   0  0  0  0  0  0
   10.1464    1.1539   19.1861 O   0  0  0  0  0  0
    8.8170    0.4716   20.8501 N   0  0  0  0  0  0
    9.0978    1.4961   21.8608 C   0  0  0  0  0  0
    8.7213    0.5464   24.0085 O   0  0  0  0  0  0
    9.3385   -1.2146   25.4329 C   0  0  0  0  0  0
   10.5958   -0.6989   25.2625 O   0  0  0  0  0  0
   11.6755   -1.3202   25.9625 C   0  0  0  0  0  0
    7.7119   -2.7364   26.3159 C   0  0  0  0  0  0
    9.0303   -2.3276   26.2028 C   0  0  0  0  0  0
    8.4678   -3.8528   16.6008 H   0  0  0  0  0  0
    5.6785   -2.3586   25.8104 H   0  0  0  0  0  0
    6.1942   -0.3760   24.4355 H   0  0  0  0  0  0
    7.1038    1.3548   22.8434 H   0  0  0  0  0  0
    7.0237   -0.4303   21.3601 H   0  0  0  0  0  0
    8.7015   -1.1248   22.1644 H   0  0  0  0  0  0
   10.7078   -4.5758   16.5856 H   0  0  0  0  0  0
   13.5054   -2.5040   19.0441 H   0  0  0  0  0  0
    7.1097   -0.4937   18.7561 H   0  0  0  0  0  0
   11.7433   -0.9455   19.7772 H   0  0  0  0  0  0
   13.0046   -4.2713   17.4374 H   0  0  0  0  0  0
   10.0768    1.2732   22.2851 H   0  0  0  0  0  0
    8.6651    2.4308   21.5041 H   0  0  0  0  0  0
   12.6061   -0.8031   25.7287 H   0  0  0  0  0  0
   11.4913   -1.2682   27.0356 H   0  0  0  0  0  0
   11.7540   -2.3639   25.6580 H   0  0  0  0  0  0
    7.4785   -3.6146   26.8997 H   0  0  0  0  0  0
    9.8162   -2.8686   26.7088 H   0  0  0  0  0  0
  1  8  1  0  0  0
  1 13  1  0  0  0
  1 27  1  0  0  0
  2  3  1  0  0  0
  2 25  2  0  0  0
  2 28  1  0  0  0
  3  4  2  0  0  0
  3 29  1  0  0  0
  4 21  1  0  0  0
  4 22  1  0  0  0
  5  6  1  0  0  0
  5 20  1  0  0  0
  5 21  1  0  0  0
  5 30  1  0  0  0
  6 19  1  0  0  0
  6 31  1  0  0  0
  6 32  1  0  0  0
  7 17  1  0  0  0
  7 18  2  0  0  0
  7 19  1  0  0  0
  8 11  2  0  0  0
  8 12  1  0  0  0
  9 13  1  0  0  0
  9 16  2  0  0  0
  9 33  1  0  0  0
 10 15  2  0  0  0
 10 16  1  0  0  0
 10 34  1  0  0  0
 12 17  2  0  0  0
 12 35  1  0  0  0
 13 14  2  0  0  0
 14 15  1  0  0  0
 14 17  1  0  0  0
 15 36  1  0  0  0
 16 37  1  0  0  0
 19 20  1  0  0  0
 20 38  1  0  0  0
 20 39  1  0  0  0
 22 23  1  0  0  0
 22 26  2  0  0  0
 23 24  1  0  0  0
 24 40  1  0  0  0
 24 41  1  0  0  0
 24 42  1  0  0  0
 25 26  1  0  0  0
 25 43  1  0  0  0
 26 44  1  0  0  0
M  END
> <s_m_entry_id>
581

> <s_m_entry_name>
7gg1.pdb.1_ligand

> <s_pdb_PDB_TITLE>
GROUP DEPOSITION SARS-COV-2 MAIN PROTEASE IN COMPLEX WITH INHIBITORS FROM THE COVID MOONSHOT -- CRYSTAL STRUCTURE OF SARS-COV-2 MAIN PROTEASE IN COMPLEX WITH ERI-UCB-A0B0DBCB-9 (MPRO-X12064)

> <s_pdb_PDB_ID>
7GG1

> <s_m_Source_File>
7gg1.pdb.gz

> <s_user_Compound_ID>
ERI-UCB-a0b0dbcb-9

> <s_user_Monomer-Dimer>
Monomer

> <s_user_xcode>
Mpro-x12064

$$$$
