7GG2_ligand
                    3D
 Schrodinger Suite 2021-2.
 42 45  0  0  1  0            999 V2000
    6.9636   -1.9178   17.8569 N   0  0  0  0  0  0
    5.9979   -2.2988   26.3858 C   0  0  0  0  0  0
    4.9436   -1.4344   26.1620 C   0  0  0  0  0  0
    5.0256   -0.5254   25.1321 C   0  0  0  0  0  0
    6.1404   -0.4496   24.3205 C   0  0  0  0  0  0
    7.2061   -1.3304   24.5220 C   0  0  0  0  0  0
    8.0463   -1.9148   22.2450 C   0  0  0  0  0  0
    8.0060   -2.5213   17.2952 C   0  0  0  0  0  0
   10.3536   -3.3599   17.3161 C   0  0  0  0  0  0
   11.7289   -2.9078   19.2212 C   0  0  0  0  0  0
    7.4752   -2.9974   22.1436 O   0  0  0  0  0  0
    8.4146   -1.3319   23.6077 C   0  0  2  0  0  0
    3.6541    0.4914   24.7820 Cl  0  0  0  0  0  0
    7.1153   -2.2461   25.5717 C   0  0  0  0  0  0
    8.1154   -3.1420   25.8681 O   0  0  0  0  0  0
    9.1242   -3.3631   24.8722 C   0  0  0  0  0  0
    9.6090   -2.0608   24.2720 C   0  0  1  0  0  0
   10.7453   -2.3154   23.2857 C   0  0  0  0  0  0
    8.3871   -1.1503   21.1887 N   0  0  0  0  0  0
    8.3068   -1.4886   19.8284 C   0  0  0  0  0  0
    9.4386   -2.1128   19.2129 C   0  0  0  0  0  0
   10.7042   -2.2468   19.8397 C   0  0  0  0  0  0
   11.5499   -3.4707   17.9644 C   0  0  0  0  0  0
    9.2716   -2.6664   17.9137 C   0  0  0  0  0  0
    7.1266   -1.4210   19.0888 C   0  0  0  0  0  0
    5.9483   -3.0131   27.1944 H   0  0  0  0  0  0
    4.0674   -1.4768   26.7921 H   0  0  0  0  0  0
    6.1862    0.2886   23.5335 H   0  0  0  0  0  0
    7.9178   -2.9399   16.3036 H   0  0  0  0  0  0
   10.2257   -3.8026   16.3393 H   0  0  0  0  0  0
   12.6879   -2.9957   19.7102 H   0  0  0  0  0  0
    8.7092   -0.2942   23.4517 H   0  0  0  0  0  0
    8.7218   -3.9985   24.0832 H   0  0  0  0  0  0
    9.9658   -3.8919   25.3196 H   0  0  0  0  0  0
    9.9888   -1.4325   25.0777 H   0  0  0  0  0  0
   11.5611   -2.8283   23.7950 H   0  0  0  0  0  0
   10.3830   -2.9351   22.4654 H   0  0  0  0  0  0
   11.1044   -1.3649   22.8911 H   0  0  0  0  0  0
    8.7474   -0.2182   21.3352 H   0  0  0  0  0  0
   10.8521   -1.8175   20.8196 H   0  0  0  0  0  0
   12.3687   -4.0003   17.5002 H   0  0  0  0  0  0
    6.3058   -0.9223   19.5829 H   0  0  0  0  0  0
  1  8  2  0  0  0
  1 25  1  0  0  0
  2  3  1  0  0  0
  2 14  2  0  0  0
  2 26  1  0  0  0
  3  4  2  0  0  0
  3 27  1  0  0  0
  4  5  1  0  0  0
  4 13  1  0  0  0
  5  6  2  0  0  0
  5 28  1  0  0  0
  6 12  1  0  0  0
  6 14  1  0  0  0
  7 11  2  0  0  0
  7 12  1  0  0  0
  7 19  1  0  0  0
  8 24  1  0  0  0
  8 29  1  0  0  0
  9 23  1  0  0  0
  9 24  2  0  0  0
  9 30  1  0  0  0
 10 22  1  0  0  0
 10 23  2  0  0  0
 10 31  1  0  0  0
 12 17  1  0  0  0
 12 32  1  0  0  0
 14 15  1  0  0  0
 15 16  1  0  0  0
 16 17  1  0  0  0
 16 33  1  0  0  0
 16 34  1  0  0  0
 17 18  1  0  0  0
 17 35  1  0  0  0
 18 36  1  0  0  0
 18 37  1  0  0  0
 18 38  1  0  0  0
 19 20  1  0  0  0
 19 39  1  0  0  0
 20 21  1  0  0  0
 20 25  2  0  0  0
 21 22  2  0  0  0
 21 24  1  0  0  0
 22 40  1  0  0  0
 23 41  1  0  0  0
 25 42  1  0  0  0
M  END
> <s_m_entry_id>
583

> <s_m_entry_name>
7gg2.pdb.1_ligand

> <s_pdb_PDB_TITLE>
GROUP DEPOSITION SARS-COV-2 MAIN PROTEASE IN COMPLEX WITH INHIBITORS FROM THE COVID MOONSHOT -- CRYSTAL STRUCTURE OF SARS-COV-2 MAIN PROTEASE IN COMPLEX WITH MAT-POS-8A69D52E-7 (MPRO-X12073)

> <s_pdb_PDB_ID>
7GG2

> <s_m_Source_File>
7gg2.pdb.gz

> <s_user_Compound_ID>
MAT-POS-8a69d52e-7

> <s_user_Monomer-Dimer>
Monomer

> <s_user_xcode>
Mpro-x12073

$$$$
