7GG4_ligand
                    3D
 Schrodinger Suite 2021-2.
 39 42  0  0  1  0            999 V2000
    6.8615   -1.9062   17.6610 N   0  0  0  0  0  0
    9.4435   -1.4938   21.0849 N   0  0  0  0  0  0
    7.6836   -2.7136   17.0485 C   0  0  0  0  0  0
    8.6126   -2.1556   18.9363 C   0  0  0  0  0  0
    9.6453   -2.2276   19.9059 C   0  0  0  0  0  0
    8.5071   -1.7959   22.0310 C   0  0  0  0  0  0
    8.7237   -1.1226   23.3870 C   0  0  1  0  0  0
    9.7503   -2.3448   25.3886 C   0  0  0  0  0  0
    5.2714   -1.5460   25.9324 C   0  0  0  0  0  0
    6.3934   -0.3724   24.1486 C   0  0  0  0  0  0
    4.0091    0.6189   24.9307 Cl  0  0  0  0  0  0
    5.3153   -0.5320   24.9966 C   0  0  0  0  0  0
    6.3435   -2.4146   26.0396 C   0  0  0  0  0  0
    7.4821   -1.2372   24.2500 C   0  0  0  0  0  0
    7.4402   -2.2459   25.2070 C   0  0  0  0  0  0
    8.5101   -3.0709   25.4197 O   0  0  0  0  0  0
   10.0257   -1.6791   24.0584 C   0  0  0  0  0  0
    7.5840   -2.5830   21.8261 O   0  0  0  0  0  0
   10.7868   -2.9877   19.7375 C   0  0  0  0  0  0
   11.8550   -3.1320   20.7901 C   0  0  0  0  0  0
    7.4441   -1.5354   18.8700 N   0  0  0  0  0  0
    8.8059   -2.9078   17.7897 N   0  0  0  0  0  0
    9.9435   -3.6585   17.5786 C   0  0  0  0  0  0
   10.9190   -3.7064   18.4989 C   0  0  0  0  0  0
   10.0120   -0.6816   21.2778 H   0  0  0  0  0  0
    7.4205   -3.1230   16.0843 H   0  0  0  0  0  0
    8.8873   -0.0618   23.1974 H   0  0  0  0  0  0
   10.5708   -3.0197   25.6321 H   0  0  0  0  0  0
    9.7484   -1.5917   26.1766 H   0  0  0  0  0  0
    4.4069   -1.6547   26.5706 H   0  0  0  0  0  0
    6.3894    0.4184   23.4130 H   0  0  0  0  0  0
    6.3207   -3.2135   26.7659 H   0  0  0  0  0  0
   10.7363   -0.8649   24.2010 H   0  0  0  0  0  0
   10.5025   -2.3936   23.3874 H   0  0  0  0  0  0
   12.6482   -3.7800   20.4172 H   0  0  0  0  0  0
   12.2684   -2.1513   21.0258 H   0  0  0  0  0  0
   11.4224   -3.5691   21.6900 H   0  0  0  0  0  0
   10.0586   -4.2184   16.6623 H   0  0  0  0  0  0
   11.8072   -4.2893   18.3050 H   0  0  0  0  0  0
  1  3  2  0  0  0
  1 21  1  0  0  0
  2  5  1  0  0  0
  2  6  1  0  0  0
  2 25  1  0  0  0
  3 22  1  0  0  0
  3 26  1  0  0  0
  4  5  1  0  0  0
  4 21  2  0  0  0
  4 22  1  0  0  0
  5 19  2  0  0  0
  6  7  1  0  0  0
  6 18  2  0  0  0
  7 14  1  0  0  0
  7 17  1  0  0  0
  7 27  1  0  0  0
  8 16  1  0  0  0
  8 17  1  0  0  0
  8 28  1  0  0  0
  8 29  1  0  0  0
  9 12  1  0  0  0
  9 13  2  0  0  0
  9 30  1  0  0  0
 10 12  2  0  0  0
 10 14  1  0  0  0
 10 31  1  0  0  0
 11 12  1  0  0  0
 13 15  1  0  0  0
 13 32  1  0  0  0
 14 15  2  0  0  0
 15 16  1  0  0  0
 17 33  1  0  0  0
 17 34  1  0  0  0
 19 20  1  0  0  0
 19 24  1  0  0  0
 20 35  1  0  0  0
 20 36  1  0  0  0
 20 37  1  0  0  0
 22 23  1  0  0  0
 23 24  2  0  0  0
 23 38  1  0  0  0
 24 39  1  0  0  0
M  END
> <s_m_entry_id>
585

> <s_m_entry_name>
7gg4.pdb.1_ligand

> <s_pdb_PDB_TITLE>
GROUP DEPOSITION SARS-COV-2 MAIN PROTEASE IN COMPLEX WITH INHIBITORS FROM THE COVID MOONSHOT -- CRYSTAL STRUCTURE OF SARS-COV-2 MAIN PROTEASE IN COMPLEX WITH JAG-UCB-52B62A6F-11 (MPRO-X12136)

> <s_pdb_PDB_ID>
7GG4

> <s_m_Source_File>
7gg4.pdb.gz

> <s_user_Compound_ID>
JAG-UCB-52b62a6f-11

> <s_user_Monomer-Dimer>
Monomer

> <s_user_xcode>
Mpro-x12136

$$$$
