7GG5_ligand
                    3D
 Schrodinger Suite 2021-2.
 48 51  0  0  1  0            999 V2000
    8.5643   -1.5953   23.4330 N   0  0  0  0  0  0
    8.0073   -1.1629   19.8562 N   0  0  0  0  0  0
    8.3427    0.7448   24.1020 C   0  0  0  0  0  0
    9.1430   -0.3566   23.8264 C   0  0  0  0  0  0
   10.5163   -0.2565   23.9765 C   0  0  0  0  0  0
   11.0872    0.9145   24.4395 C   0  0  0  0  0  0
    8.7688   -2.7461   24.3070 C   0  0  0  0  0  0
    6.6286   -2.6376   25.6769 C   0  0  0  0  0  0
    8.0484   -0.6601   21.2131 C   0  0  0  0  0  0
    8.8235   -3.1954   17.1279 C   0  0  0  0  0  0
   10.8058   -3.1958   18.5157 C   0  0  0  0  0  0
    7.3007   -2.8032   21.9900 O   0  0  0  0  0  0
    7.9305   -1.7868   22.2414 C   0  0  0  0  0  0
    8.8966   -1.9512   19.1905 C   0  0  0  0  0  0
   10.1991   -2.3576   19.4443 C   0  0  0  0  0  0
   10.1274   -3.6060   17.3698 C   0  0  0  0  0  0
    8.2057   -2.3581   18.0532 C   0  0  0  0  0  0
    6.9406   -1.8160   18.0897 N   0  0  0  0  0  0
    6.8342   -1.1039   19.1770 N   0  0  0  0  0  0
    7.4893   -3.2840   24.8663 C   0  0  0  0  0  0
    7.1330   -4.5846   24.5402 N   0  0  0  0  0  0
    6.0093   -4.8792   25.1161 C   0  0  0  0  0  0
    5.3224   -3.6433   26.0758 S   0  0  0  0  0  0
    8.9106    1.9244   24.5420 C   0  0  0  0  0  0
   10.2953    2.0280   24.7344 C   0  0  0  0  0  0
   10.8561    3.1884   25.2119 N   0  0  0  0  0  0
   12.2542    3.5011   24.9593 C   0  0  0  0  0  0
   10.0236    4.3426   25.5069 C   0  0  0  0  0  0
    7.2724    0.6806   23.9724 H   0  0  0  0  0  0
   11.1490   -1.0968   23.7314 H   0  0  0  0  0  0
   12.1566    0.9763   24.5772 H   0  0  0  0  0  0
    9.4323   -2.4662   25.1252 H   0  0  0  0  0  0
    9.2821   -3.5335   23.7550 H   0  0  0  0  0  0
    6.8298   -1.6197   25.9765 H   0  0  0  0  0  0
    7.2365    0.0520   21.3607 H   0  0  0  0  0  0
    8.9822   -0.1207   21.3718 H   0  0  0  0  0  0
    8.3099   -3.5253   16.2370 H   0  0  0  0  0  0
   11.8172   -3.5384   18.6772 H   0  0  0  0  0  0
   10.7407   -2.0460   20.3252 H   0  0  0  0  0  0
   10.6295   -4.2523   16.6651 H   0  0  0  0  0  0
    5.5686   -5.8548   24.9729 H   0  0  0  0  0  0
    8.2861    2.7825   24.7425 H   0  0  0  0  0  0
   12.5018    4.4580   25.4188 H   0  0  0  0  0  0
   12.8843    2.7202   25.3852 H   0  0  0  0  0  0
   12.4255    3.5596   23.8845 H   0  0  0  0  0  0
   10.6482    5.1578   25.8722 H   0  0  0  0  0  0
    9.5068    4.6594   24.6010 H   0  0  0  0  0  0
    9.2908    4.0774   26.2689 H   0  0  0  0  0  0
  1  4  1  0  0  0
  1  7  1  0  0  0
  1 13  1  0  0  0
  2  9  1  0  0  0
  2 14  1  0  0  0
  2 19  1  0  0  0
  3  4  1  0  0  0
  3 24  2  0  0  0
  3 29  1  0  0  0
  4  5  2  0  0  0
  5  6  1  0  0  0
  5 30  1  0  0  0
  6 25  2  0  0  0
  6 31  1  0  0  0
  7 20  1  0  0  0
  7 32  1  0  0  0
  7 33  1  0  0  0
  8 20  2  0  0  0
  8 23  1  0  0  0
  8 34  1  0  0  0
  9 13  1  0  0  0
  9 35  1  0  0  0
  9 36  1  0  0  0
 10 16  2  0  0  0
 10 17  1  0  0  0
 10 37  1  0  0  0
 11 15  2  0  0  0
 11 16  1  0  0  0
 11 38  1  0  0  0
 12 13  2  0  0  0
 14 15  1  0  0  0
 14 17  2  0  0  0
 15 39  1  0  0  0
 16 40  1  0  0  0
 17 18  1  0  0  0
 18 19  2  0  0  0
 20 21  1  0  0  0
 21 22  2  0  0  0
 22 23  1  0  0  0
 22 41  1  0  0  0
 24 25  1  0  0  0
 24 42  1  0  0  0
 25 26  1  0  0  0
 26 27  1  0  0  0
 26 28  1  0  0  0
 27 43  1  0  0  0
 27 44  1  0  0  0
 27 45  1  0  0  0
 28 46  1  0  0  0
 28 47  1  0  0  0
 28 48  1  0  0  0
M  END
> <s_m_entry_id>
587

> <s_m_entry_name>
7gg5.pdb.1_ligand

> <s_pdb_PDB_TITLE>
GROUP DEPOSITION SARS-COV-2 MAIN PROTEASE IN COMPLEX WITH INHIBITORS FROM THE COVID MOONSHOT -- CRYSTAL STRUCTURE OF SARS-COV-2 MAIN PROTEASE IN COMPLEX WITH ALP-POS-87C86D55-1 (MPRO-X12143)

> <s_pdb_PDB_ID>
7GG5

> <s_m_Source_File>
7gg5.pdb.gz

> <s_user_Compound_ID>
ALP-POS-87c86d55-1

> <s_user_Monomer-Dimer>
Monomer

> <s_user_xcode>
Mpro-x12143

$$$$
