7GG6_ligand
                    3D
 Schrodinger Suite 2021-2.
 40 43  0  0  1  0            999 V2000
    8.4328   -0.6566   20.5817 N   0  0  0  0  0  0
   10.3281   -1.0824   24.6477 C   0  0  0  0  0  0
   10.0527   -0.5350   23.2539 C   0  0  0  0  0  0
    8.5399   -0.2477   22.9700 C   0  0  1  0  0  0
    8.0842   -1.1226   21.8009 C   0  0  0  0  0  0
    8.3185   -1.3255   19.3503 C   0  0  0  0  0  0
    8.0108   -2.8110   17.0561 C   0  0  0  0  0  0
   11.5096   -3.7232   17.9587 C   0  0  0  0  0  0
   10.6532   -2.2106   19.6008 C   0  0  0  0  0  0
    7.6019   -0.5883   24.1122 C   0  0  0  0  0  0
    7.4900   -2.1853   21.9716 O   0  0  0  0  0  0
    9.2788   -2.0042   25.0703 N   0  0  0  0  0  0
    7.9940   -1.5431   25.0590 C   0  0  0  0  0  0
    7.0820   -1.9874   26.0181 C   0  0  0  0  0  0
    5.8026   -1.4628   26.0607 C   0  0  0  0  0  0
    6.3231   -0.0432   24.1870 C   0  0  0  0  0  0
    5.4516   -0.4757   25.1643 C   0  0  0  0  0  0
    3.9001    0.3038   25.3161 Cl  0  0  0  0  0  0
    9.4144   -2.1291   18.9156 C   0  0  0  0  0  0
   11.6672   -2.9937   19.1263 C   0  0  0  0  0  0
   10.3357   -3.6845   17.2664 C   0  0  0  0  0  0
    9.2557   -2.8918   17.7258 C   0  0  0  0  0  0
    6.9923   -2.0618   17.4608 N   0  0  0  0  0  0
    7.1631   -1.3362   18.5708 C   0  0  0  0  0  0
    8.8243    0.2697   20.4880 H   0  0  0  0  0  0
   10.3922   -0.2563   25.3558 H   0  0  0  0  0  0
   11.2880   -1.5990   24.6514 H   0  0  0  0  0  0
   10.4337   -1.2339   22.5093 H   0  0  0  0  0  0
   10.6283    0.3785   23.1041 H   0  0  0  0  0  0
    8.4166    0.8020   22.7037 H   0  0  0  0  0  0
    7.8444   -3.3823   16.1547 H   0  0  0  0  0  0
   12.3218   -4.3308   17.5879 H   0  0  0  0  0  0
   10.8050   -1.6491   20.5107 H   0  0  0  0  0  0
    9.4731   -2.9509   25.3636 H   0  0  0  0  0  0
    7.3740   -2.7441   26.7313 H   0  0  0  0  0  0
    5.0936   -1.8268   26.7895 H   0  0  0  0  0  0
    6.0171    0.7151   23.4815 H   0  0  0  0  0  0
   12.5987   -3.0407   19.6709 H   0  0  0  0  0  0
   10.2240   -4.2613   16.3602 H   0  0  0  0  0  0
    6.3173   -0.7255   18.8504 H   0  0  0  0  0  0
  1  5  1  0  0  0
  1  6  1  0  0  0
  1 25  1  0  0  0
  2  3  1  0  0  0
  2 12  1  0  0  0
  2 26  1  0  0  0
  2 27  1  0  0  0
  3  4  1  0  0  0
  3 28  1  0  0  0
  3 29  1  0  0  0
  4  5  1  0  0  0
  4 10  1  0  0  0
  4 30  1  0  0  0
  5 11  2  0  0  0
  6 19  1  0  0  0
  6 24  2  0  0  0
  7 22  1  0  0  0
  7 23  2  0  0  0
  7 31  1  0  0  0
  8 20  1  0  0  0
  8 21  2  0  0  0
  8 32  1  0  0  0
  9 19  1  0  0  0
  9 20  2  0  0  0
  9 33  1  0  0  0
 10 13  1  0  0  0
 10 16  2  0  0  0
 12 13  1  0  0  0
 12 34  1  0  0  0
 13 14  2  0  0  0
 14 15  1  0  0  0
 14 35  1  0  0  0
 15 17  2  0  0  0
 15 36  1  0  0  0
 16 17  1  0  0  0
 16 37  1  0  0  0
 17 18  1  0  0  0
 19 22  2  0  0  0
 20 38  1  0  0  0
 21 22  1  0  0  0
 21 39  1  0  0  0
 23 24  1  0  0  0
 24 40  1  0  0  0
M  END
> <s_m_entry_id>
589

> <s_m_entry_name>
7gg6.pdb.1_ligand

> <s_pdb_PDB_TITLE>
GROUP DEPOSITION SARS-COV-2 MAIN PROTEASE IN COMPLEX WITH INHIBITORS FROM THE COVID MOONSHOT -- CRYSTAL STRUCTURE OF SARS-COV-2 MAIN PROTEASE IN COMPLEX WITH ALP-POS-477DC5B7-2 (MPRO-X12171)

> <s_pdb_PDB_ID>
7GG6

> <s_m_Source_File>
7gg6.pdb.gz

> <s_user_Compound_ID>
ALP-POS-477dc5b7-2

> <s_user_Monomer-Dimer>
Monomer

> <s_user_xcode>
Mpro-x12171

$$$$
