7GG7_ligand
                    3D
 Schrodinger Suite 2021-2.
 48 51  0  0  1  0            999 V2000
    8.0847   -1.2654   19.8342 N   0  0  0  0  0  0
    7.1885   -1.8090   17.9415 N   0  0  0  0  0  0
    9.2060   -0.5078   23.8238 C   0  0  0  0  0  0
    8.4261    0.6043   24.1203 C   0  0  0  0  0  0
    9.0147    1.7620   24.5904 C   0  0  0  0  0  0
    8.6313   -2.8561   24.3358 C   0  0  0  0  0  0
    7.3203   -3.0942   25.0461 C   0  0  0  0  0  0
    5.4359   -2.2227   26.2691 C   0  0  0  0  0  0
    6.6505   -4.3076   24.9130 C   0  0  0  0  0  0
    8.0688   -0.7509   21.1869 C   0  0  0  0  0  0
    9.1142   -3.2178   17.1247 C   0  0  0  0  0  0
   10.2876   -2.4772   19.5823 C   0  0  0  0  0  0
    9.0242   -2.0323   19.2181 C   0  0  0  0  0  0
    7.3349   -2.9028   21.9293 O   0  0  0  0  0  0
    7.9549   -1.8883   22.2033 C   0  0  0  0  0  0
   10.9629   -3.2949   18.6865 C   0  0  0  0  0  0
   10.3818   -3.6640   17.4742 C   0  0  0  0  0  0
    8.4361   -2.3842   18.0080 C   0  0  0  0  0  0
    6.9918   -1.1378   19.0401 N   0  0  0  0  0  0
    8.5882   -1.7233   23.3995 N   0  0  0  0  0  0
   10.5867   -0.4464   24.0012 C   0  0  0  0  0  0
   11.1773    0.7066   24.4884 C   0  0  0  0  0  0
   10.3903    1.8108   24.7833 C   0  0  0  0  0  0
   11.0292    2.9173   25.2837 O   0  0  0  0  0  0
   10.2399    4.0706   25.5775 C   0  0  0  0  0  0
    5.3847   -4.4503   25.4508 C   0  0  0  0  0  0
    4.5865   -5.9938   25.3420 Cl  0  0  0  0  0  0
    4.7557   -3.4156   26.1061 C   0  0  0  0  0  0
    6.7102   -2.0668   25.7491 C   0  0  0  0  0  0
    7.3555    0.5651   23.9833 H   0  0  0  0  0  0
    8.4063    2.6275   24.8074 H   0  0  0  0  0  0
    8.9207   -3.7591   23.7982 H   0  0  0  0  0  0
    9.4165   -2.6870   25.0726 H   0  0  0  0  0  0
    4.9737   -1.4064   26.8043 H   0  0  0  0  0  0
    7.1199   -5.1292   24.3924 H   0  0  0  0  0  0
    7.2252   -0.0713   21.3068 H   0  0  0  0  0  0
    8.9842   -0.1889   21.3722 H   0  0  0  0  0  0
    8.6759   -3.5188   16.1846 H   0  0  0  0  0  0
   10.7097   -2.1852   20.5325 H   0  0  0  0  0  0
   11.9531   -3.6546   18.9245 H   0  0  0  0  0  0
   10.9323   -4.3065   16.8030 H   0  0  0  0  0  0
   11.2009   -1.3008   23.7582 H   0  0  0  0  0  0
   12.2463    0.7442   24.6376 H   0  0  0  0  0  0
   10.8819    4.8619   25.9644 H   0  0  0  0  0  0
    9.7468    4.4152   24.6686 H   0  0  0  0  0  0
    9.4877    3.8161   26.3242 H   0  0  0  0  0  0
    3.7516   -3.5214   26.4894 H   0  0  0  0  0  0
    7.2289   -1.1311   25.8967 H   0  0  0  0  0  0
  1 10  1  0  0  0
  1 13  1  0  0  0
  1 19  1  0  0  0
  2 18  1  0  0  0
  2 19  2  0  0  0
  3  4  1  0  0  0
  3 20  1  0  0  0
  3 21  2  0  0  0
  4  5  2  0  0  0
  4 30  1  0  0  0
  5 23  1  0  0  0
  5 31  1  0  0  0
  6  7  1  0  0  0
  6 20  1  0  0  0
  6 32  1  0  0  0
  6 33  1  0  0  0
  7  9  1  0  0  0
  7 29  2  0  0  0
  8 28  2  0  0  0
  8 29  1  0  0  0
  8 34  1  0  0  0
  9 26  2  0  0  0
  9 35  1  0  0  0
 10 15  1  0  0  0
 10 36  1  0  0  0
 10 37  1  0  0  0
 11 17  2  0  0  0
 11 18  1  0  0  0
 11 38  1  0  0  0
 12 13  1  0  0  0
 12 16  2  0  0  0
 12 39  1  0  0  0
 13 18  2  0  0  0
 14 15  2  0  0  0
 15 20  1  0  0  0
 16 17  1  0  0  0
 16 40  1  0  0  0
 17 41  1  0  0  0
 21 22  1  0  0  0
 21 42  1  0  0  0
 22 23  2  0  0  0
 22 43  1  0  0  0
 23 24  1  0  0  0
 24 25  1  0  0  0
 25 44  1  0  0  0
 25 45  1  0  0  0
 25 46  1  0  0  0
 26 27  1  0  0  0
 26 28  1  0  0  0
 28 47  1  0  0  0
 29 48  1  0  0  0
M  END
> <s_m_entry_id>
591

> <s_m_entry_name>
7gg7.pdb.1_ligand

> <s_pdb_PDB_TITLE>
GROUP DEPOSITION SARS-COV-2 MAIN PROTEASE IN COMPLEX WITH INHIBITORS FROM THE COVID MOONSHOT -- CRYSTAL STRUCTURE OF SARS-COV-2 MAIN PROTEASE IN COMPLEX WITH CHO-MSK-00C5269A-2 (MPRO-X12177)

> <s_pdb_PDB_ID>
7GG7

> <s_m_Source_File>
7gg7.pdb.gz

> <s_user_Compound_ID>
CHO-MSK-00c5269a-2

> <s_user_Monomer-Dimer>
Monomer

> <s_user_xcode>
Mpro-x12177

$$$$
