7GG8_ligand
                    3D
 Schrodinger Suite 2021-2.
 37 39  0  0  1  0            999 V2000
    7.0050   -2.0224   17.7731 N   0  0  0  0  0  0
   10.2824   -0.6894   20.8498 C   0  0  0  0  0  0
   11.2900   -1.8117   20.6358 C   0  0  0  0  0  0
   10.9366   -2.7389   19.4606 C   0  0  0  0  0  0
    9.5610   -2.5004   18.8764 C   0  0  0  0  0  0
    8.1642   -1.4116   21.9522 C   0  0  0  0  0  0
    7.5942   -0.8258   24.3215 C   0  0  0  0  0  0
    5.6535   -1.2899   26.2777 C   0  0  0  0  0  0
    6.3507   -0.2124   24.2358 C   0  0  0  0  0  0
    3.9201    0.4558   25.1749 Cl  0  0  0  0  0  0
    5.4062   -0.4429   25.2153 C   0  0  0  0  0  0
    6.9037   -1.8792   26.3791 C   0  0  0  0  0  0
    7.8670   -1.6429   25.4095 C   0  0  0  0  0  0
    8.5942   -0.6657   23.2030 C   0  0  0  0  0  0
    7.2100   -2.1751   21.9655 O   0  0  0  0  0  0
    8.9246   -1.2569   20.8358 N   0  0  0  0  0  0
    9.2407   -2.9880   17.6048 C   0  0  0  0  0  0
   10.1663   -3.6870   16.8533 N   0  0  0  0  0  0
    8.5848   -1.7683   19.5671 C   0  0  0  0  0  0
    7.3410   -1.5657   18.9814 C   0  0  0  0  0  0
    7.9272   -2.7175   17.0980 C   0  0  0  0  0  0
   10.3783    0.0424   20.0477 H   0  0  0  0  0  0
   10.4674   -0.2142   21.8132 H   0  0  0  0  0  0
   11.3743   -2.4010   21.5489 H   0  0  0  0  0  0
   12.2793   -1.3837   20.4740 H   0  0  0  0  0  0
   11.0173   -3.7772   19.7827 H   0  0  0  0  0  0
   11.6860   -2.6301   18.6766 H   0  0  0  0  0  0
    4.8805   -1.4809   27.0074 H   0  0  0  0  0  0
    6.1271    0.4411   23.4055 H   0  0  0  0  0  0
    7.1303   -2.5246   27.2148 H   0  0  0  0  0  0
    8.8388   -2.1035   25.5086 H   0  0  0  0  0  0
    8.7128    0.3927   22.9712 H   0  0  0  0  0  0
    9.5660   -1.0356   23.5297 H   0  0  0  0  0  0
    9.9166   -4.0314   15.9373 H   0  0  0  0  0  0
   11.0925   -3.8535   17.2202 H   0  0  0  0  0  0
    6.6270   -1.0021   19.5634 H   0  0  0  0  0  0
    7.6985   -3.1076   16.1172 H   0  0  0  0  0  0
  1 20  1  0  0  0
  1 21  2  0  0  0
  2  3  1  0  0  0
  2 16  1  0  0  0
  2 22  1  0  0  0
  2 23  1  0  0  0
  3  4  1  0  0  0
  3 24  1  0  0  0
  3 25  1  0  0  0
  4  5  1  0  0  0
  4 26  1  0  0  0
  4 27  1  0  0  0
  5 17  2  0  0  0
  5 19  1  0  0  0
  6 14  1  0  0  0
  6 15  2  0  0  0
  6 16  1  0  0  0
  7  9  1  0  0  0
  7 13  2  0  0  0
  7 14  1  0  0  0
  8 11  1  0  0  0
  8 12  2  0  0  0
  8 28  1  0  0  0
  9 11  2  0  0  0
  9 29  1  0  0  0
 10 11  1  0  0  0
 12 13  1  0  0  0
 12 30  1  0  0  0
 13 31  1  0  0  0
 14 32  1  0  0  0
 14 33  1  0  0  0
 16 19  1  0  0  0
 17 18  1  0  0  0
 17 21  1  0  0  0
 18 34  1  0  0  0
 18 35  1  0  0  0
 19 20  2  0  0  0
 20 36  1  0  0  0
 21 37  1  0  0  0
M  END
> <s_m_entry_id>
593

> <s_m_entry_name>
7gg8.pdb.1_ligand

> <s_pdb_PDB_TITLE>
GROUP DEPOSITION SARS-COV-2 MAIN PROTEASE IN COMPLEX WITH INHIBITORS FROM THE COVID MOONSHOT -- CRYSTAL STRUCTURE OF SARS-COV-2 MAIN PROTEASE IN COMPLEX WITH ALP-POS-CD485364-2 (MPRO-X12202)

> <s_pdb_PDB_ID>
7GG8

> <s_m_Source_File>
7gg8.pdb.gz

> <s_user_Compound_ID>
ALP-POS-cd485364-2

> <s_user_Monomer-Dimer>
Monomer

> <s_user_xcode>
Mpro-x12202

$$$$
