7GG9_ligand
                    3D
 Schrodinger Suite 2021-2.
 37 39  0  0  1  0            999 V2000
    7.7799   -1.1829   23.5658 N   0  0  0  0  0  0
    6.7090   -1.1056   19.0889 N   0  0  0  0  0  0
    7.6384   -2.1084   24.6982 C   0  0  0  0  0  0
    7.6179   -1.5986   22.2934 C   0  0  0  0  0  0
    7.8186   -0.5646   21.1869 C   0  0  0  0  0  0
    8.1706   -2.3627   18.0930 C   0  0  0  0  0  0
    8.8727   -3.1726   17.2079 C   0  0  0  0  0  0
   10.7468   -3.1466   18.7447 C   0  0  0  0  0  0
    8.0752    0.1992   23.9659 C   0  0  0  0  0  0
    5.7843    0.3159   27.1002 C   0  0  0  0  0  0
   10.0397   -2.3633   19.6519 C   0  0  0  0  0  0
    8.7485   -1.9732   19.2944 C   0  0  0  0  0  0
    7.0165    0.7176   24.9361 C   0  0  0  0  0  0
    6.8531   -0.1934   26.1437 C   0  0  0  0  0  0
    6.5718   -1.6148   25.6770 C   0  0  0  0  0  0
   10.1678   -3.5550   17.5442 C   0  0  0  0  0  0
    7.8040   -1.1969   19.8931 N   0  0  0  0  0  0
    6.9147   -1.8019   18.0113 N   0  0  0  0  0  0
    7.3199   -2.7458   22.0197 O   0  0  0  0  0  0
    8.5933   -2.1967   25.2163 H   0  0  0  0  0  0
    7.3620   -3.0956   24.3278 H   0  0  0  0  0  0
    8.7726   -0.0578   21.3324 H   0  0  0  0  0  0
    7.0232    0.1791   21.2364 H   0  0  0  0  0  0
    8.4113   -3.4902   16.2845 H   0  0  0  0  0  0
   11.7602   -3.4474   18.9659 H   0  0  0  0  0  0
    8.0998    0.8358   23.0814 H   0  0  0  0  0  0
    9.0546    0.2377   24.4429 H   0  0  0  0  0  0
    5.7006   -0.3642   27.9478 H   0  0  0  0  0  0
    6.0586    1.3086   27.4572 H   0  0  0  0  0  0
    4.8271    0.3686   26.5814 H   0  0  0  0  0  0
   10.4939   -2.0807   20.5901 H   0  0  0  0  0  0
    6.0620    0.8067   24.4174 H   0  0  0  0  0  0
    7.2905    1.7180   25.2711 H   0  0  0  0  0  0
    7.8011   -0.2032   26.6816 H   0  0  0  0  0  0
    6.5360   -2.2796   26.5400 H   0  0  0  0  0  0
    5.5939   -1.6520   25.1969 H   0  0  0  0  0  0
   10.7392   -4.1770   16.8711 H   0  0  0  0  0  0
  1  3  1  0  0  0
  1  4  1  0  0  0
  1  9  1  0  0  0
  2 17  1  0  0  0
  2 18  2  0  0  0
  3 15  1  0  0  0
  3 20  1  0  0  0
  3 21  1  0  0  0
  4  5  1  0  0  0
  4 19  2  0  0  0
  5 17  1  0  0  0
  5 22  1  0  0  0
  5 23  1  0  0  0
  6  7  1  0  0  0
  6 12  2  0  0  0
  6 18  1  0  0  0
  7 16  2  0  0  0
  7 24  1  0  0  0
  8 11  2  0  0  0
  8 16  1  0  0  0
  8 25  1  0  0  0
  9 13  1  0  0  0
  9 26  1  0  0  0
  9 27  1  0  0  0
 10 14  1  0  0  0
 10 28  1  0  0  0
 10 29  1  0  0  0
 10 30  1  0  0  0
 11 12  1  0  0  0
 11 31  1  0  0  0
 12 17  1  0  0  0
 13 14  1  0  0  0
 13 32  1  0  0  0
 13 33  1  0  0  0
 14 15  1  0  0  0
 14 34  1  0  0  0
 15 35  1  0  0  0
 15 36  1  0  0  0
 16 37  1  0  0  0
M  END
> <s_m_entry_id>
595

> <s_m_entry_name>
7gg9.pdb.1_ligand

> <s_pdb_PDB_TITLE>
GROUP DEPOSITION SARS-COV-2 MAIN PROTEASE IN COMPLEX WITH INHIBITORS FROM THE COVID MOONSHOT -- CRYSTAL STRUCTURE OF SARS-COV-2 MAIN PROTEASE IN COMPLEX WITH ANT-DIA-62E4526E-1 (MPRO-X12204)

> <s_pdb_PDB_ID>
7GG9

> <s_m_Source_File>
7gg9.pdb.gz

> <s_user_Compound_ID>
ANT-DIA-62e4526e-1

> <s_user_Monomer-Dimer>
Monomer

> <s_user_xcode>
Mpro-x12204

$$$$
