7GGA_ligand
                    3D
 Schrodinger Suite 2021-2.
 42 45  0  0  1  0            999 V2000
    6.9133   -1.8441   17.6541 N   0  0  0  0  0  0
    7.3926   -1.9971   25.4667 C   0  0  0  0  0  0
    6.3678   -2.2276   26.3684 C   0  0  0  0  0  0
    5.1722   -1.5527   26.2165 C   0  0  0  0  0  0
    5.0323   -0.6525   25.1821 C   0  0  0  0  0  0
    6.0420   -0.4210   24.2683 C   0  0  0  0  0  0
    7.9481   -1.5794   22.0976 C   0  0  0  0  0  0
    7.8853   -2.6116   17.1808 C   0  0  0  0  0  0
   10.1887   -3.5583   17.2699 C   0  0  0  0  0  0
   11.5541   -3.1137   19.1798 C   0  0  0  0  0  0
    7.2363   -2.5714   22.1195 O   0  0  0  0  0  0
    8.3895   -0.8890   23.4016 C   0  0  1  0  0  0
    7.2512   -1.1033   24.4012 C   0  0  0  0  0  0
    3.5827    0.2990   25.0872 Cl  0  0  0  0  0  0
    8.5511   -2.6923   25.6916 O   0  0  0  0  0  0
    9.7272   -1.9680   25.2903 C   0  0  0  0  0  0
    9.7001   -1.6124   23.8155 C   0  0  0  0  0  0
    8.6389    0.6271   23.2699 C   0  0  0  0  0  0
    8.2349   -0.9711   20.9451 N   0  0  0  0  0  0
    8.2668   -1.3756   19.6112 C   0  0  0  0  0  0
    9.2958   -2.2312   19.1215 C   0  0  0  0  0  0
   10.5441   -2.4138   19.7756 C   0  0  0  0  0  0
   11.3804   -3.6760   17.9266 C   0  0  0  0  0  0
    9.1141   -2.8357   17.8474 C   0  0  0  0  0  0
    7.1280   -1.2247   18.8211 C   0  0  0  0  0  0
    6.5086   -2.9280   27.1784 H   0  0  0  0  0  0
    4.3592   -1.7329   26.9043 H   0  0  0  0  0  0
    5.8903    0.2818   23.4624 H   0  0  0  0  0  0
    7.7649   -3.1114   16.2310 H   0  0  0  0  0  0
   10.0582   -4.0179   16.3013 H   0  0  0  0  0  0
   12.5003   -3.2332   19.6864 H   0  0  0  0  0  0
   10.6123   -2.5676   25.5025 H   0  0  0  0  0  0
    9.8107   -1.0561   25.8816 H   0  0  0  0  0  0
   10.5543   -0.9775   23.5802 H   0  0  0  0  0  0
    9.8164   -2.5192   23.2220 H   0  0  0  0  0  0
    8.9456    1.0306   24.2349 H   0  0  0  0  0  0
    9.4253    0.8041   22.5361 H   0  0  0  0  0  0
    7.7224    1.1198   22.9453 H   0  0  0  0  0  0
    8.4991    0.0037   20.9406 H   0  0  0  0  0  0
   10.6878   -1.9894   20.7583 H   0  0  0  0  0  0
   12.1987   -4.2119   17.4687 H   0  0  0  0  0  0
    6.3862   -0.5469   19.2172 H   0  0  0  0  0  0
  1  8  2  0  0  0
  1 25  1  0  0  0
  2  3  1  0  0  0
  2 13  2  0  0  0
  2 15  1  0  0  0
  3  4  2  0  0  0
  3 26  1  0  0  0
  4  5  1  0  0  0
  4 27  1  0  0  0
  5  6  2  0  0  0
  5 14  1  0  0  0
  6 13  1  0  0  0
  6 28  1  0  0  0
  7 11  2  0  0  0
  7 12  1  0  0  0
  7 19  1  0  0  0
  8 24  1  0  0  0
  8 29  1  0  0  0
  9 23  1  0  0  0
  9 24  2  0  0  0
  9 30  1  0  0  0
 10 22  1  0  0  0
 10 23  2  0  0  0
 10 31  1  0  0  0
 12 13  1  0  0  0
 12 17  1  0  0  0
 12 18  1  0  0  0
 15 16  1  0  0  0
 16 17  1  0  0  0
 16 32  1  0  0  0
 16 33  1  0  0  0
 17 34  1  0  0  0
 17 35  1  0  0  0
 18 36  1  0  0  0
 18 37  1  0  0  0
 18 38  1  0  0  0
 19 20  1  0  0  0
 19 39  1  0  0  0
 20 21  1  0  0  0
 20 25  2  0  0  0
 21 22  2  0  0  0
 21 24  1  0  0  0
 22 40  1  0  0  0
 23 41  1  0  0  0
 25 42  1  0  0  0
M  END
> <s_m_entry_id>
597

> <s_m_entry_name>
7gga.pdb.1_ligand

> <s_pdb_PDB_TITLE>
GROUP DEPOSITION SARS-COV-2 MAIN PROTEASE IN COMPLEX WITH INHIBITORS FROM THE COVID MOONSHOT -- CRYSTAL STRUCTURE OF SARS-COV-2 MAIN PROTEASE IN COMPLEX WITH EDJ-MED-E4B030D8-13 (MPRO-X12207)

> <s_pdb_PDB_ID>
7GGA

> <s_m_Source_File>
7gga.pdb.gz

> <s_user_Compound_ID>
EDJ-MED-e4b030d8-13

> <s_user_Monomer-Dimer>
Monomer

> <s_user_xcode>
Mpro-x12207

$$$$
