7GGB_ligand
                    3D
 Schrodinger Suite 2021-2.
 46 47  0  0  1  0            999 V2000
    8.6082   -0.6930   20.4080 N   0  0  0  0  0  0
   11.9144   -2.9332   22.6182 N   0  0  0  0  0  0
    7.2488   -1.3842   18.5082 C   0  0  0  0  0  0
    8.4421   -1.4455   19.2227 C   0  0  0  0  0  0
    7.9600   -1.0528   21.5349 C   0  0  0  0  0  0
    7.9556   -0.0079   22.6336 C   0  0  0  0  0  0
    8.4279   -0.6122   23.9347 C   0  0  0  0  0  0
    7.9959   -1.8568   25.9319 C   0  0  0  0  0  0
   12.6272   -0.5629   24.9399 C   0  0  0  0  0  0
   14.4514   -0.7081   23.1732 C   0  0  0  0  0  0
   12.6340   -2.3167   23.2463 C   0  0  0  0  0  0
   13.5109   -1.4960   24.0903 C   0  0  0  0  0  0
   14.3061   -2.4336   25.0052 C   0  0  0  0  0  0
   11.5941   -1.2318   25.7061 N   0  0  0  0  0  0
   10.2435   -1.2570   25.3977 C   0  0  0  0  0  0
    9.3419   -1.9007   26.2406 C   0  0  0  0  0  0
    6.8608   -2.6470   26.9901 Cl  0  0  0  0  0  0
    7.5263   -1.2185   24.8017 C   0  0  0  0  0  0
    9.7812   -0.6261   24.2461 C   0  0  0  0  0  0
    7.3889   -2.1327   21.6639 O   0  0  0  0  0  0
    9.4392   -2.3338   18.8047 C   0  0  0  0  0  0
   10.6846   -2.5723   19.6165 C   0  0  0  0  0  0
    6.9931   -2.1531   17.4424 N   0  0  0  0  0  0
    7.9735   -2.9582   17.0163 C   0  0  0  0  0  0
    9.1943   -3.0723   17.6525 C   0  0  0  0  0  0
    9.2132    0.1157   20.4122 H   0  0  0  0  0  0
    6.4755   -0.6920   18.8069 H   0  0  0  0  0  0
    6.9455    0.3819   22.7599 H   0  0  0  0  0  0
    8.6145    0.8146   22.3551 H   0  0  0  0  0  0
   12.1693    0.1867   24.2945 H   0  0  0  0  0  0
   13.2582    0.0164   25.6140 H   0  0  0  0  0  0
   15.0575   -1.4021   22.5908 H   0  0  0  0  0  0
   13.8642   -0.0850   22.4986 H   0  0  0  0  0  0
   15.1027   -0.0758   23.7766 H   0  0  0  0  0  0
   14.9293   -3.0912   24.3991 H   0  0  0  0  0  0
   14.9388   -1.8442   25.6688 H   0  0  0  0  0  0
   13.6166   -3.0333   25.5994 H   0  0  0  0  0  0
   11.9331   -1.7090   26.5292 H   0  0  0  0  0  0
    9.6769   -2.4274   27.1219 H   0  0  0  0  0  0
    6.4680   -1.1877   24.5886 H   0  0  0  0  0  0
   10.4911   -0.1431   23.5909 H   0  0  0  0  0  0
   11.3186   -3.2971   19.1058 H   0  0  0  0  0  0
   11.2276   -1.6344   19.7339 H   0  0  0  0  0  0
   10.4106   -2.9582   20.5984 H   0  0  0  0  0  0
    7.8308   -3.5617   16.1321 H   0  0  0  0  0  0
    9.9562   -3.7298   17.2604 H   0  0  0  0  0  0
  1  4  1  0  0  0
  1  5  1  0  0  0
  1 26  1  0  0  0
  2 11  3  0  0  0
  3  4  1  0  0  0
  3 23  2  0  0  0
  3 27  1  0  0  0
  4 21  2  0  0  0
  5  6  1  0  0  0
  5 20  2  0  0  0
  6  7  1  0  0  0
  6 28  1  0  0  0
  6 29  1  0  0  0
  7 18  1  0  0  0
  7 19  2  0  0  0
  8 16  1  0  0  0
  8 17  1  0  0  0
  8 18  2  0  0  0
  9 12  1  0  0  0
  9 14  1  0  0  0
  9 30  1  0  0  0
  9 31  1  0  0  0
 10 12  1  0  0  0
 10 32  1  0  0  0
 10 33  1  0  0  0
 10 34  1  0  0  0
 11 12  1  0  0  0
 12 13  1  0  0  0
 13 35  1  0  0  0
 13 36  1  0  0  0
 13 37  1  0  0  0
 14 15  1  0  0  0
 14 38  1  0  0  0
 15 16  2  0  0  0
 15 19  1  0  0  0
 16 39  1  0  0  0
 18 40  1  0  0  0
 19 41  1  0  0  0
 21 22  1  0  0  0
 21 25  1  0  0  0
 22 42  1  0  0  0
 22 43  1  0  0  0
 22 44  1  0  0  0
 23 24  1  0  0  0
 24 25  2  0  0  0
 24 45  1  0  0  0
 25 46  1  0  0  0
M  END
> <s_m_entry_id>
599

> <s_m_entry_name>
7ggb.pdb.1_ligand

> <s_pdb_PDB_TITLE>
GROUP DEPOSITION SARS-COV-2 MAIN PROTEASE IN COMPLEX WITH INHIBITORS FROM THE COVID MOONSHOT -- CRYSTAL STRUCTURE OF SARS-COV-2 MAIN PROTEASE IN COMPLEX WITH MAT-POS-044491D2-7 (MPRO-X12300)

> <s_pdb_PDB_ID>
7GGB

> <s_m_Source_File>
7ggb.pdb.gz

> <s_user_Compound_ID>
MAT-POS-044491d2-7

> <s_user_Monomer-Dimer>
Monomer

> <s_user_xcode>
Mpro-x12300

$$$$
