7GGC_ligand
                    3D
 Schrodinger Suite 2021-2.
 43 45  0  0  1  0            999 V2000
    8.7739   -0.5098   20.2266 N   0  0  0  0  0  0
    7.4118   -1.3425   18.3814 C   0  0  0  0  0  0
    8.6422   -1.2382   19.0255 C   0  0  0  0  0  0
    8.2556   -0.9096   21.4025 C   0  0  0  0  0  0
    8.3564    0.1089   22.5197 C   0  0  0  0  0  0
    8.5507   -0.5349   23.8751 C   0  0  0  0  0  0
    7.6454   -1.4727   25.8869 C   0  0  0  0  0  0
   12.5894   -0.8085   25.9199 C   0  0  2  0  0  0
   13.4275   -0.7670   24.6820 C   0  0  2  0  0  0
    9.8245   -0.6573   24.4197 C   0  0  0  0  0  0
   12.3774   -2.3155   23.2548 F   0  0  0  0  0  0
   13.2033   -1.2709   23.2900 C   0  0  0  0  0  0
   14.3368   -1.6600   22.7157 F   0  0  0  0  0  0
   12.6763   -0.3443   22.4908 F   0  0  0  0  0  0
   13.6928   -1.8012   25.7360 C   0  0  0  0  0  0
   11.2647   -1.2910   26.2821 N   0  0  0  0  0  0
   10.0092   -1.2030   25.6882 C   0  0  0  0  0  0
    8.9090   -1.6564   26.4134 C   0  0  0  0  0  0
    6.2604   -1.6942   26.9278 Cl  0  0  0  0  0  0
    7.4530   -0.9521   24.6205 C   0  0  0  0  0  0
    7.7332   -2.0020   21.5732 O   0  0  0  0  0  0
    9.7393   -1.9471   18.5054 C   0  0  0  0  0  0
   11.0829   -1.9586   19.1923 C   0  0  0  0  0  0
    7.2117   -2.0924   17.2934 N   0  0  0  0  0  0
    8.2652   -2.7493   16.7981 C   0  0  0  0  0  0
    9.5245   -2.7027   17.3575 C   0  0  0  0  0  0
    9.2804    0.3641   20.2343 H   0  0  0  0  0  0
    6.5572   -0.8004   18.7585 H   0  0  0  0  0  0
    7.4542    0.7204   22.5350 H   0  0  0  0  0  0
    9.1859    0.7868   22.3183 H   0  0  0  0  0  0
   12.9030   -0.0250   26.6097 H   0  0  0  0  0  0
   14.1579    0.0416   24.7106 H   0  0  0  0  0  0
   10.6859   -0.3273   23.8581 H   0  0  0  0  0  0
   13.1143   -2.6247   25.3174 H   0  0  0  0  0  0
   14.4799   -1.2863   26.2868 H   0  0  0  0  0  0
   11.3753   -1.7789   27.1595 H   0  0  0  0  0  0
    9.0300   -2.1434   27.3697 H   0  0  0  0  0  0
    6.4578   -0.8683   24.2095 H   0  0  0  0  0  0
   11.7804   -2.5675   18.6171 H   0  0  0  0  0  0
   11.4639   -0.9398   19.2634 H   0  0  0  0  0  0
   10.9763   -2.3768   20.1932 H   0  0  0  0  0  0
    8.1546   -3.3577   15.9126 H   0  0  0  0  0  0
   10.3417   -3.2485   16.9095 H   0  0  0  0  0  0
  1  3  1  0  0  0
  1  4  1  0  0  0
  1 27  1  0  0  0
  2  3  1  0  0  0
  2 24  2  0  0  0
  2 28  1  0  0  0
  3 22  2  0  0  0
  4  5  1  0  0  0
  4 21  2  0  0  0
  5  6  1  0  0  0
  5 29  1  0  0  0
  5 30  1  0  0  0
  6 10  1  0  0  0
  6 20  2  0  0  0
  7 18  2  0  0  0
  7 19  1  0  0  0
  7 20  1  0  0  0
  8  9  1  0  0  0
  8 15  1  0  0  0
  8 16  1  0  0  0
  8 31  1  0  0  0
  9 12  1  0  0  0
  9 15  1  0  0  0
  9 32  1  0  0  0
 10 17  2  0  0  0
 10 33  1  0  0  0
 11 12  1  0  0  0
 12 13  1  0  0  0
 12 14  1  0  0  0
 15 34  1  0  0  0
 15 35  1  0  0  0
 16 17  1  0  0  0
 16 36  1  0  0  0
 17 18  1  0  0  0
 18 37  1  0  0  0
 20 38  1  0  0  0
 22 23  1  0  0  0
 22 26  1  0  0  0
 23 39  1  0  0  0
 23 40  1  0  0  0
 23 41  1  0  0  0
 24 25  1  0  0  0
 25 26  2  0  0  0
 25 42  1  0  0  0
 26 43  1  0  0  0
M  END
> <s_m_entry_id>
601

> <s_m_entry_name>
7ggc.pdb.1_ligand

> <s_pdb_PDB_TITLE>
GROUP DEPOSITION SARS-COV-2 MAIN PROTEASE IN COMPLEX WITH INHIBITORS FROM THE COVID MOONSHOT -- CRYSTAL STRUCTURE OF SARS-COV-2 MAIN PROTEASE IN COMPLEX WITH MAT-POS-044491D2-3 (MPRO-X12321)

> <s_pdb_PDB_ID>
7GGC

> <s_m_Source_File>
7ggc.pdb.gz

> <s_user_Compound_ID>
MAT-POS-044491d2-3

> <s_user_Monomer-Dimer>
Monomer

> <s_user_xcode>
Mpro-x12321

$$$$
