7GGD_ligand
                    3D
 Schrodinger Suite 2021-2.
 56 58  0  0  1  0            999 V2000
   12.5257   -1.5364   27.5163 N   0  0  0  0  0  0
    9.9887   -1.5039   24.9005 C   0  0  0  0  0  0
   10.3880   -0.5531   26.0197 C   0  0  0  0  0  0
   11.9468    1.0503   24.9370 C   0  0  0  0  0  0
   11.4381    2.3484   25.4551 C   0  0  0  0  0  0
   10.2741    3.0010   25.3204 C   0  0  0  0  0  0
   11.5992    4.2016   26.6071 C   0  0  0  0  0  0
   13.6943   -1.8977   29.5280 C   0  0  0  0  0  0
   15.6070   -3.3982   29.7493 C   0  0  0  0  0  0
   16.2371   -4.7389   27.7605 C   0  0  0  0  0  0
   14.2568   -3.5274   26.2226 C   0  0  0  0  0  0
   14.3999   -3.1723   27.5654 C   0  0  0  0  0  0
   16.5082   -3.8283   30.4537 O   0  0  0  0  0  0
   14.7005   -2.4380   30.2690 N   0  0  0  0  0  0
   14.9284   -1.9739   31.6350 C   0  0  0  0  0  0
   15.4101   -3.7753   28.3391 C   0  0  0  0  0  0
   15.0958   -4.4760   25.6642 C   0  0  0  0  0  0
   16.0723   -5.0846   26.4294 C   0  0  0  0  0  0
   13.5257   -2.1860   28.2208 C   0  0  0  0  0  0
   12.7920   -0.4749   26.6480 C   0  0  0  0  0  0
   13.8927    0.0599   26.6137 O   0  0  0  0  0  0
   11.7505   -0.0213   25.8943 N   0  0  0  0  0  0
   12.2810    3.0637   26.2481 O   0  0  0  0  0  0
   10.3851    4.2043   26.0714 C   0  0  0  0  0  0
    8.5817   -2.0185   25.0759 C   0  0  0  0  0  0
    7.6876   -0.9046   25.1387 O   0  0  0  0  0  0
    6.2929   -1.1671   25.2347 C   0  0  0  0  0  0
    5.8975   -1.8036   26.5272 C   0  0  0  0  0  0
    5.5348    0.1009   24.9645 C   0  0  0  0  0  0
   11.5640   -1.8264   27.6212 H   0  0  0  0  0  0
   10.6817   -2.3448   24.8746 H   0  0  0  0  0  0
   10.0703   -0.9908   23.9423 H   0  0  0  0  0  0
   10.2849   -1.0604   26.9789 H   0  0  0  0  0  0
    9.6795    0.2743   26.0610 H   0  0  0  0  0  0
   13.0085    1.1421   24.7081 H   0  0  0  0  0  0
   11.4336    0.8046   24.0073 H   0  0  0  0  0  0
    9.4826    2.5754   24.7215 H   0  0  0  0  0  0
   11.9176    5.0266   27.2270 H   0  0  0  0  0  0
   12.9959   -1.2119   29.9843 H   0  0  0  0  0  0
   17.0059   -5.2154   28.3507 H   0  0  0  0  0  0
   13.4913   -3.0619   25.6196 H   0  0  0  0  0  0
   15.7689   -2.5162   32.0681 H   0  0  0  0  0  0
   15.1517   -0.9071   31.6243 H   0  0  0  0  0  0
   14.0349   -2.1516   32.2334 H   0  0  0  0  0  0
   14.9898   -4.7451   24.6237 H   0  0  0  0  0  0
   16.7092   -5.8340   25.9833 H   0  0  0  0  0  0
    9.5566    4.8961   26.1085 H   0  0  0  0  0  0
    8.5166   -2.5889   26.0025 H   0  0  0  0  0  0
    8.3172   -2.6489   24.2270 H   0  0  0  0  0  0
    6.0414   -1.8688   24.4394 H   0  0  0  0  0  0
    4.8212   -1.9762   26.5335 H   0  0  0  0  0  0
    6.4181   -2.7548   26.6386 H   0  0  0  0  0  0
    6.1642   -1.1450   27.3537 H   0  0  0  0  0  0
    4.4646   -0.0926   25.0363 H   0  0  0  0  0  0
    5.8169    0.8567   25.6976 H   0  0  0  0  0  0
    5.7722    0.4604   23.9632 H   0  0  0  0  0  0
  1 19  1  0  0  0
  1 20  1  0  0  0
  1 30  1  0  0  0
  2  3  1  0  0  0
  2 25  1  0  0  0
  2 31  1  0  0  0
  2 32  1  0  0  0
  3 22  1  0  0  0
  3 33  1  0  0  0
  3 34  1  0  0  0
  4  5  1  0  0  0
  4 22  1  0  0  0
  4 35  1  0  0  0
  4 36  1  0  0  0
  5  6  2  0  0  0
  5 23  1  0  0  0
  6 24  1  0  0  0
  6 37  1  0  0  0
  7 23  1  0  0  0
  7 24  2  0  0  0
  7 38  1  0  0  0
  8 14  1  0  0  0
  8 19  2  0  0  0
  8 39  1  0  0  0
  9 13  2  0  0  0
  9 14  1  0  0  0
  9 16  1  0  0  0
 10 16  1  0  0  0
 10 18  2  0  0  0
 10 40  1  0  0  0
 11 12  1  0  0  0
 11 17  2  0  0  0
 11 41  1  0  0  0
 12 16  2  0  0  0
 12 19  1  0  0  0
 14 15  1  0  0  0
 15 42  1  0  0  0
 15 43  1  0  0  0
 15 44  1  0  0  0
 17 18  1  0  0  0
 17 45  1  0  0  0
 18 46  1  0  0  0
 20 21  2  0  0  0
 20 22  1  0  0  0
 24 47  1  0  0  0
 25 26  1  0  0  0
 25 48  1  0  0  0
 25 49  1  0  0  0
 26 27  1  0  0  0
 27 28  1  0  0  0
 27 29  1  0  0  0
 27 50  1  0  0  0
 28 51  1  0  0  0
 28 52  1  0  0  0
 28 53  1  0  0  0
 29 54  1  0  0  0
 29 55  1  0  0  0
 29 56  1  0  0  0
M  END
> <s_m_entry_id>
603

> <s_m_entry_name>
7ggd.pdb.1_ligand

> <s_pdb_PDB_TITLE>
GROUP DEPOSITION SARS-COV-2 MAIN PROTEASE IN COMPLEX WITH INHIBITORS FROM THE COVID MOONSHOT -- CRYSTAL STRUCTURE OF SARS-COV-2 MAIN PROTEASE IN COMPLEX WITH MAT-POS-B5746674-38 (MPRO-X12350)

> <s_pdb_PDB_ID>
7GGD

> <s_m_Source_File>
7ggd.pdb.gz

> <s_user_Compound_ID>
MAT-POS-b5746674-38

> <s_user_Monomer-Dimer>
Monomer

> <s_user_xcode>
Mpro-x12350

$$$$
