7GGE_ligand
                    3D
 Schrodinger Suite 2021-2.
 52 55  0  0  1  0            999 V2000
    8.5333   -1.7727   23.5199 N   0  0  0  0  0  0
    6.7737   -1.2614   19.2425 N   0  0  0  0  0  0
   10.3817   -0.3141   24.1491 C   0  0  0  0  0  0
    9.0211   -0.5058   23.9516 C   0  0  0  0  0  0
    8.1468    0.5582   24.1337 C   0  0  0  0  0  0
    8.6314    1.8069   24.4744 C   0  0  0  0  0  0
    8.6548   -2.8950   24.4580 C   0  0  0  0  0  0
    6.8268   -2.3810   26.1150 C   0  0  0  0  0  0
    5.4042   -4.6321   25.3723 C   0  0  0  0  0  0
    7.9821   -2.0016   22.2938 C   0  0  0  0  0  0
    8.2043   -2.4063   18.0799 C   0  0  0  0  0  0
   10.8294   -3.1591   18.5363 C   0  0  0  0  0  0
   10.1851   -2.3782   19.4886 C   0  0  0  0  0  0
    8.8686   -2.0193   19.2387 C   0  0  0  0  0  0
    7.5260   -3.0882   21.9728 O   0  0  0  0  0  0
    7.9878   -0.8380   21.3039 C   0  0  0  0  0  0
    7.9348   -1.3226   19.9427 N   0  0  0  0  0  0
   10.1773   -3.5545   17.3720 C   0  0  0  0  0  0
    8.8604   -3.1863   17.1303 C   0  0  0  0  0  0
    6.9190   -1.9178   18.1259 N   0  0  0  0  0  0
   10.8671    0.9292   24.5133 C   0  0  0  0  0  0
   10.0012    2.0176   24.6754 C   0  0  0  0  0  0
   10.4827    3.2642   25.0068 N   0  0  0  0  0  0
    9.6278    4.2359   25.6610 C   0  0  0  0  0  0
   11.9068    3.5011   25.2029 C   0  0  0  0  0  0
    7.3568   -3.2318   25.1506 C   0  0  0  0  0  0
    6.6350   -4.3668   24.7949 C   0  0  0  0  0  0
    4.8757   -3.7649   26.3095 C   0  0  0  0  0  0
    5.5913   -2.6422   26.6872 C   0  0  0  0  0  0
   11.0676   -1.1380   24.0185 H   0  0  0  0  0  0
    7.0841    0.4113   24.0092 H   0  0  0  0  0  0
    7.9507    2.6375   24.5892 H   0  0  0  0  0  0
    9.4137   -2.6620   25.2049 H   0  0  0  0  0  0
    9.0198   -3.7736   23.9261 H   0  0  0  0  0  0
    7.3787   -1.5061   26.4254 H   0  0  0  0  0  0
    4.8551   -5.5183   25.0904 H   0  0  0  0  0  0
   11.8520   -3.4687   18.6938 H   0  0  0  0  0  0
   10.7098   -2.0740   20.3823 H   0  0  0  0  0  0
    8.8928   -0.2469   21.4438 H   0  0  0  0  0  0
    7.1281   -0.1955   21.4942 H   0  0  0  0  0  0
   10.6959   -4.1565   16.6405 H   0  0  0  0  0  0
    8.3446   -3.4905   16.2315 H   0  0  0  0  0  0
   11.9255    1.0691   24.6761 H   0  0  0  0  0  0
   10.1890    5.1534   25.8383 H   0  0  0  0  0  0
    8.7699    4.4526   25.0244 H   0  0  0  0  0  0
    9.2809    3.8331   26.6126 H   0  0  0  0  0  0
   12.0699    4.5484   25.4571 H   0  0  0  0  0  0
   12.2725    2.8699   26.0129 H   0  0  0  0  0  0
   12.4451    3.2624   24.2856 H   0  0  0  0  0  0
    7.0440   -5.0445   24.0601 H   0  0  0  0  0  0
    3.9076   -3.9645   26.7445 H   0  0  0  0  0  0
    5.1863   -1.9693   27.4285 H   0  0  0  0  0  0
  1  4  1  0  0  0
  1  7  1  0  0  0
  1 10  1  0  0  0
  2 17  1  0  0  0
  2 20  2  0  0  0
  3  4  1  0  0  0
  3 21  2  0  0  0
  3 30  1  0  0  0
  4  5  2  0  0  0
  5  6  1  0  0  0
  5 31  1  0  0  0
  6 22  2  0  0  0
  6 32  1  0  0  0
  7 26  1  0  0  0
  7 33  1  0  0  0
  7 34  1  0  0  0
  8 26  1  0  0  0
  8 29  2  0  0  0
  8 35  1  0  0  0
  9 27  1  0  0  0
  9 28  2  0  0  0
  9 36  1  0  0  0
 10 15  2  0  0  0
 10 16  1  0  0  0
 11 14  2  0  0  0
 11 19  1  0  0  0
 11 20  1  0  0  0
 12 13  2  0  0  0
 12 18  1  0  0  0
 12 37  1  0  0  0
 13 14  1  0  0  0
 13 38  1  0  0  0
 14 17  1  0  0  0
 16 17  1  0  0  0
 16 39  1  0  0  0
 16 40  1  0  0  0
 18 19  2  0  0  0
 18 41  1  0  0  0
 19 42  1  0  0  0
 21 22  1  0  0  0
 21 43  1  0  0  0
 22 23  1  0  0  0
 23 24  1  0  0  0
 23 25  1  0  0  0
 24 44  1  0  0  0
 24 45  1  0  0  0
 24 46  1  0  0  0
 25 47  1  0  0  0
 25 48  1  0  0  0
 25 49  1  0  0  0
 26 27  2  0  0  0
 27 50  1  0  0  0
 28 29  1  0  0  0
 28 51  1  0  0  0
 29 52  1  0  0  0
M  END
> <s_m_entry_id>
605

> <s_m_entry_name>
7gge.pdb.1_ligand

> <s_pdb_PDB_TITLE>
GROUP DEPOSITION SARS-COV-2 MAIN PROTEASE IN COMPLEX WITH INHIBITORS FROM THE COVID MOONSHOT -- CRYSTAL STRUCTURE OF SARS-COV-2 MAIN PROTEASE IN COMPLEX WITH ALP-POS-6D04362C-1 (MPRO-X12419)

> <s_pdb_PDB_ID>
7GGE

> <s_m_Source_File>
7gge.pdb.gz

> <s_user_Compound_ID>
ALP-POS-6d04362c-1

> <s_user_Monomer-Dimer>
Monomer

> <s_user_xcode>
Mpro-x12419

$$$$
