7GGF_ligand
                    3D
 Schrodinger Suite 2021-2.
 52 55  0  0  1  0            999 V2000
    8.6127   -1.8027   23.4096 N   0  0  0  0  0  0
    6.9342   -1.2067   19.1042 N   0  0  0  0  0  0
   10.4669   -0.3069   23.9871 C   0  0  0  0  0  0
    9.0981   -0.5424   23.8765 C   0  0  0  0  0  0
    8.2024    0.4593   24.2183 C   0  0  0  0  0  0
    8.6624    1.6901   24.6491 C   0  0  0  0  0  0
    8.7065   -2.9460   24.3327 C   0  0  0  0  0  0
    6.9667   -2.2183   25.9960 C   0  0  0  0  0  0
    5.4612   -4.4693   25.5549 C   0  0  0  0  0  0
    8.0654   -2.0038   22.1748 C   0  0  0  0  0  0
    8.3072   -2.4183   17.9375 C   0  0  0  0  0  0
   10.9277   -3.2254   18.3552 C   0  0  0  0  0  0
   10.3068   -2.4511   19.3266 C   0  0  0  0  0  0
    8.9943   -2.0625   19.0964 C   0  0  0  0  0  0
    7.5308   -3.0560   21.8659 O   0  0  0  0  0  0
    8.1638   -0.8507   21.1719 C   0  0  0  0  0  0
    8.0907   -1.3291   19.8056 N   0  0  0  0  0  0
   10.2467   -3.6033   17.1951 C   0  0  0  0  0  0
    8.9317   -3.2084   16.9751 C   0  0  0  0  0  0
    7.0462   -1.8663   17.9862 N   0  0  0  0  0  0
   10.9315    0.9220   24.4245 C   0  0  0  0  0  0
   10.0359    1.9505   24.7580 C   0  0  0  0  0  0
   10.4896    3.1852   25.1756 N   0  0  0  0  0  0
    9.6319    4.3545   25.0944 C   0  0  0  0  0  0
   11.9122    3.4797   25.2736 C   0  0  0  0  0  0
    7.4452   -3.1887   25.1261 C   0  0  0  0  0  0
    6.6863   -4.3388   24.9227 C   0  0  0  0  0  0
    4.5433   -5.9367   25.3385 Cl  0  0  0  0  0  0
    4.9601   -3.4807   26.3736 C   0  0  0  0  0  0
    5.7294   -2.3542   26.6043 C   0  0  0  0  0  0
   11.1710   -1.0848   23.7312 H   0  0  0  0  0  0
    7.1396    0.2801   24.1489 H   0  0  0  0  0  0
    7.9601    2.4688   24.9077 H   0  0  0  0  0  0
    9.5402   -2.7906   25.0174 H   0  0  0  0  0  0
    8.9586   -3.8451   23.7703 H   0  0  0  0  0  0
    7.5613   -1.3418   26.2071 H   0  0  0  0  0  0
   11.9507   -3.5439   18.4910 H   0  0  0  0  0  0
   10.8447   -2.1732   20.2210 H   0  0  0  0  0  0
    9.1041   -0.3199   21.3206 H   0  0  0  0  0  0
    7.3546   -0.1430   21.3523 H   0  0  0  0  0  0
   10.7416   -4.2114   16.4523 H   0  0  0  0  0  0
    8.3949   -3.4998   16.0844 H   0  0  0  0  0  0
   11.9935    1.0977   24.5123 H   0  0  0  0  0  0
   10.1686    5.2260   25.4692 H   0  0  0  0  0  0
    9.3449    4.5238   24.0566 H   0  0  0  0  0  0
    8.7378    4.1924   25.6963 H   0  0  0  0  0  0
   12.0486    4.5041   25.6203 H   0  0  0  0  0  0
   12.3782    2.7926   25.9799 H   0  0  0  0  0  0
   12.3762    3.3633   24.2942 H   0  0  0  0  0  0
    7.0474   -5.1257   24.2771 H   0  0  0  0  0  0
    3.9839   -3.5938   26.8215 H   0  0  0  0  0  0
    5.3624   -1.5793   27.2609 H   0  0  0  0  0  0
  1  4  1  0  0  0
  1  7  1  0  0  0
  1 10  1  0  0  0
  2 17  1  0  0  0
  2 20  2  0  0  0
  3  4  1  0  0  0
  3 21  2  0  0  0
  3 31  1  0  0  0
  4  5  2  0  0  0
  5  6  1  0  0  0
  5 32  1  0  0  0
  6 22  2  0  0  0
  6 33  1  0  0  0
  7 26  1  0  0  0
  7 34  1  0  0  0
  7 35  1  0  0  0
  8 26  1  0  0  0
  8 30  2  0  0  0
  8 36  1  0  0  0
  9 27  1  0  0  0
  9 28  1  0  0  0
  9 29  2  0  0  0
 10 15  2  0  0  0
 10 16  1  0  0  0
 11 14  2  0  0  0
 11 19  1  0  0  0
 11 20  1  0  0  0
 12 13  2  0  0  0
 12 18  1  0  0  0
 12 37  1  0  0  0
 13 14  1  0  0  0
 13 38  1  0  0  0
 14 17  1  0  0  0
 16 17  1  0  0  0
 16 39  1  0  0  0
 16 40  1  0  0  0
 18 19  2  0  0  0
 18 41  1  0  0  0
 19 42  1  0  0  0
 21 22  1  0  0  0
 21 43  1  0  0  0
 22 23  1  0  0  0
 23 24  1  0  0  0
 23 25  1  0  0  0
 24 44  1  0  0  0
 24 45  1  0  0  0
 24 46  1  0  0  0
 25 47  1  0  0  0
 25 48  1  0  0  0
 25 49  1  0  0  0
 26 27  2  0  0  0
 27 50  1  0  0  0
 29 30  1  0  0  0
 29 51  1  0  0  0
 30 52  1  0  0  0
M  END
> <s_m_entry_id>
607

> <s_m_entry_name>
7ggf.pdb.1_ligand

> <s_pdb_PDB_TITLE>
GROUP DEPOSITION SARS-COV-2 MAIN PROTEASE IN COMPLEX WITH INHIBITORS FROM THE COVID MOONSHOT -- CRYSTAL STRUCTURE OF SARS-COV-2 MAIN PROTEASE IN COMPLEX WITH ALP-POS-6D04362C-2 (MPRO-X12423)

> <s_pdb_PDB_ID>
7GGF

> <s_m_Source_File>
7ggf.pdb.gz

> <s_user_Compound_ID>
ALP-POS-6d04362c-2

> <s_user_Monomer-Dimer>
Monomer

> <s_user_xcode>
Mpro-x12423

$$$$
