7GGG_ligand
                    3D
 Schrodinger Suite 2021-2.
 42 45  0  0  1  0            999 V2000
    9.6766   -0.3475   20.8774 N   0  0  0  0  0  0
    7.3643   -0.6643   24.3846 C   0  0  0  0  0  0
    6.2269    0.1332   24.4382 C   0  0  0  0  0  0
    8.7252    0.6895   22.8770 C   0  0  0  0  0  0
    9.9444    0.5855   21.9743 C   0  0  0  0  0  0
    9.3375   -1.6887   21.3466 C   0  0  0  0  0  0
    9.7018   -0.0111   19.5710 C   0  0  0  0  0  0
    8.1605   -2.7258   16.7001 C   0  0  0  0  0  0
   10.3192   -3.9775   16.6012 C   0  0  0  0  0  0
   12.1150   -3.3146   18.0338 C   0  0  0  0  0  0
   10.1453    1.0558   19.1815 O   0  0  0  0  0  0
    9.1938   -1.0227   18.5855 C   0  0  0  0  0  0
   10.0288   -2.0767   18.1138 C   0  0  0  0  0  0
   11.3571   -2.3097   18.5635 C   0  0  0  0  0  0
   11.6002   -4.1391   17.0460 C   0  0  0  0  0  0
    9.4967   -2.9471   17.1231 C   0  0  0  0  0  0
    7.3805   -1.7474   17.1559 N   0  0  0  0  0  0
    7.9017   -0.9158   18.0675 C   0  0  0  0  0  0
    8.2533   -1.7196   22.3877 C   0  0  0  0  0  0
    7.4878   -2.6750   22.4357 O   0  0  0  0  0  0
    8.1538   -0.6310   23.2063 N   0  0  0  0  0  0
    5.3640   -0.0106   25.5004 C   0  0  0  0  0  0
    3.8601    0.8595   25.4733 Cl  0  0  0  0  0  0
    7.6527   -1.5525   25.4213 C   0  0  0  0  0  0
    6.7757   -1.6641   26.4898 C   0  0  0  0  0  0
    5.6206   -0.8945   26.5340 C   0  0  0  0  0  0
    6.0329    0.8505   23.6545 H   0  0  0  0  0  0
    7.9657    1.3020   22.3911 H   0  0  0  0  0  0
    8.9986    1.2057   23.7972 H   0  0  0  0  0  0
   10.1786    1.5686   21.5657 H   0  0  0  0  0  0
   10.7961    0.2295   22.5540 H   0  0  0  0  0  0
   10.2319   -2.1700   21.7420 H   0  0  0  0  0  0
    9.0406   -2.3042   20.4974 H   0  0  0  0  0  0
    7.7137   -3.3741   15.9609 H   0  0  0  0  0  0
    9.9230   -4.6382   15.8444 H   0  0  0  0  0  0
   13.1243   -3.4720   18.3844 H   0  0  0  0  0  0
   11.7650   -1.6763   19.3373 H   0  0  0  0  0  0
   12.2232   -4.9156   16.6274 H   0  0  0  0  0  0
    7.2503   -0.1215   18.4010 H   0  0  0  0  0  0
    8.5536   -2.1471   25.3880 H   0  0  0  0  0  0
    6.9893   -2.3527   27.2939 H   0  0  0  0  0  0
    4.9275   -0.9777   27.3581 H   0  0  0  0  0  0
  1  5  1  0  0  0
  1  6  1  0  0  0
  1  7  1  0  0  0
  2  3  1  0  0  0
  2 21  1  0  0  0
  2 24  2  0  0  0
  3 22  2  0  0  0
  3 27  1  0  0  0
  4  5  1  0  0  0
  4 21  1  0  0  0
  4 28  1  0  0  0
  4 29  1  0  0  0
  5 30  1  0  0  0
  5 31  1  0  0  0
  6 19  1  0  0  0
  6 32  1  0  0  0
  6 33  1  0  0  0
  7 11  2  0  0  0
  7 12  1  0  0  0
  8 16  1  0  0  0
  8 17  2  0  0  0
  8 34  1  0  0  0
  9 15  1  0  0  0
  9 16  2  0  0  0
  9 35  1  0  0  0
 10 14  1  0  0  0
 10 15  2  0  0  0
 10 36  1  0  0  0
 12 13  1  0  0  0
 12 18  2  0  0  0
 13 14  2  0  0  0
 13 16  1  0  0  0
 14 37  1  0  0  0
 15 38  1  0  0  0
 17 18  1  0  0  0
 18 39  1  0  0  0
 19 20  2  0  0  0
 19 21  1  0  0  0
 22 23  1  0  0  0
 22 26  1  0  0  0
 24 25  1  0  0  0
 24 40  1  0  0  0
 25 26  2  0  0  0
 25 41  1  0  0  0
 26 42  1  0  0  0
M  END
> <s_m_entry_id>
609

> <s_m_entry_name>
7ggg.pdb.1_ligand

> <s_pdb_PDB_TITLE>
GROUP DEPOSITION SARS-COV-2 MAIN PROTEASE IN COMPLEX WITH INHIBITORS FROM THE COVID MOONSHOT -- CRYSTAL STRUCTURE OF SARS-COV-2 MAIN PROTEASE IN COMPLEX WITH ERI-UCB-D6DE1F3C-2 (MPRO-X12582)

> <s_pdb_PDB_ID>
7GGG

> <s_m_Source_File>
7ggg.pdb.gz

> <s_user_Compound_ID>
ERI-UCB-d6de1f3c-2

> <s_user_Monomer-Dimer>
Monomer

> <s_user_xcode>
Mpro-x12582

$$$$
