7GGH_ligand
                    3D
 Schrodinger Suite 2021-2.
 41 44  0  0  1  0            999 V2000
    6.9191   -1.7583   17.7660 N   0  0  0  0  0  0
    7.2866   -1.2013   24.3899 C   0  0  0  0  0  0
    6.1078   -0.4698   24.2934 C   0  0  0  0  0  0
    8.4232   -0.9697   23.4056 C   0  0  2  0  0  0
    8.9607    0.4636   23.3991 C   0  0  0  0  0  0
   10.0459    0.6148   22.3385 C   0  0  0  0  0  0
    8.0805   -1.5093   22.0240 C   0  0  0  0  0  0
    7.8233   -2.5493   17.1973 C   0  0  0  0  0  0
   10.0297   -3.7115   17.1509 C   0  0  0  0  0  0
   11.4973   -3.4912   19.0258 C   0  0  0  0  0  0
    7.3940   -2.5033   21.8966 O   0  0  0  0  0  0
    7.4115   -2.1474   25.4005 C   0  0  0  0  0  0
    6.3772   -2.3666   26.2962 C   0  0  0  0  0  0
    5.2080   -1.6291   26.2084 C   0  0  0  0  0  0
    5.0947   -0.6849   25.2089 C   0  0  0  0  0  0
    3.6604    0.2962   25.1233 Cl  0  0  0  0  0  0
    8.5949   -0.8577   20.9358 N   0  0  0  0  0  0
    9.4833    0.3263   20.9592 C   0  0  0  0  0  0
    8.4154   -1.4433   19.6440 C   0  0  0  0  0  0
    9.3804   -2.3095   19.0503 C   0  0  0  0  0  0
   10.6095   -2.6714   19.6625 C   0  0  0  0  0  0
   11.2107   -4.0038   17.7682 C   0  0  0  0  0  0
    9.0797   -2.8652   17.7744 C   0  0  0  0  0  0
    7.2319   -1.2190   18.9512 C   0  0  0  0  0  0
    5.9884    0.2607   23.5069 H   0  0  0  0  0  0
    9.2473   -1.5874   23.7626 H   0  0  0  0  0  0
    9.3753    0.7003   24.3790 H   0  0  0  0  0  0
    8.1460    1.1559   23.1863 H   0  0  0  0  0  0
   10.8600   -0.0782   22.5508 H   0  0  0  0  0  0
   10.4399    1.6308   22.3646 H   0  0  0  0  0  0
    7.6209   -2.9964   16.2353 H   0  0  0  0  0  0
    9.8118   -4.1265   16.1779 H   0  0  0  0  0  0
   12.4331   -3.7464   19.5007 H   0  0  0  0  0  0
    8.3218   -2.7210   25.4937 H   0  0  0  0  0  0
    6.4804   -3.1155   27.0675 H   0  0  0  0  0  0
    4.4082   -1.7988   26.9140 H   0  0  0  0  0  0
   10.3039    0.1773   20.2574 H   0  0  0  0  0  0
    8.9346    1.1979   20.6023 H   0  0  0  0  0  0
   10.8378   -2.2885   20.6462 H   0  0  0  0  0  0
   11.9333   -4.6396   17.2782 H   0  0  0  0  0  0
    6.5378   -0.5522   19.4411 H   0  0  0  0  0  0
  1  8  2  0  0  0
  1 24  1  0  0  0
  2  3  1  0  0  0
  2  4  1  0  0  0
  2 12  2  0  0  0
  3 15  2  0  0  0
  3 25  1  0  0  0
  4  5  1  0  0  0
  4  7  1  0  0  0
  4 26  1  0  0  0
  5  6  1  0  0  0
  5 27  1  0  0  0
  5 28  1  0  0  0
  6 18  1  0  0  0
  6 29  1  0  0  0
  6 30  1  0  0  0
  7 11  2  0  0  0
  7 17  1  0  0  0
  8 23  1  0  0  0
  8 31  1  0  0  0
  9 22  1  0  0  0
  9 23  2  0  0  0
  9 32  1  0  0  0
 10 21  1  0  0  0
 10 22  2  0  0  0
 10 33  1  0  0  0
 12 13  1  0  0  0
 12 34  1  0  0  0
 13 14  2  0  0  0
 13 35  1  0  0  0
 14 15  1  0  0  0
 14 36  1  0  0  0
 15 16  1  0  0  0
 17 18  1  0  0  0
 17 19  1  0  0  0
 18 37  1  0  0  0
 18 38  1  0  0  0
 19 20  1  0  0  0
 19 24  2  0  0  0
 20 21  2  0  0  0
 20 23  1  0  0  0
 21 39  1  0  0  0
 22 40  1  0  0  0
 24 41  1  0  0  0
M  END
> <s_m_entry_id>
713

> <s_m_entry_name>
7ggh.pdb.1_ligand

> <s_pdb_PDB_TITLE>
GROUP DEPOSITION SARS-COV-2 MAIN PROTEASE IN COMPLEX WITH INHIBITORS FROM THE COVID MOONSHOT -- CRYSTAL STRUCTURE OF SARS-COV-2 MAIN PROTEASE IN COMPLEX WITH PET-UNK-C9C1E0D8-3 (MPRO-X12587)

> <s_pdb_PDB_ID>
7GGH

> <s_m_Source_File>
7ggh.pdb.gz

> <s_user_Compound_ID>
PET-UNK-c9c1e0d8-3

> <s_user_Monomer-Dimer>
Monomer

> <s_user_xcode>
Mpro-x12587

$$$$
