7GGI_ligand
                    3D
 Schrodinger Suite 2021-2.
 37 39  0  0  1  0            999 V2000
    6.9892   -2.0088   17.4800 N   0  0  0  0  0  0
    7.6197   -0.6879   24.1257 C   0  0  0  0  0  0
    8.5677   -0.4662   22.9719 C   0  0  0  0  0  0
    8.0999   -1.2417   21.7569 C   0  0  0  0  0  0
    8.3644   -1.3742   19.3399 C   0  0  0  0  0  0
    7.1787   -1.3299   18.6143 C   0  0  0  0  0  0
    9.2285   -2.8714   17.6710 C   0  0  0  0  0  0
   10.7390   -2.2183   19.6066 C   0  0  0  0  0  0
    6.3706   -0.0786   24.1249 C   0  0  0  0  0  0
    7.4533   -2.2846   21.8599 O   0  0  0  0  0  0
    7.9345   -1.5735   25.1468 C   0  0  0  0  0  0
    7.0046   -1.8877   26.1256 C   0  0  0  0  0  0
    5.7509   -1.2966   26.1115 C   0  0  0  0  0  0
    5.4627   -0.3828   25.1187 C   0  0  0  0  0  0
    3.9436    0.4660   25.1575 Cl  0  0  0  0  0  0
    8.4849   -0.7096   20.5773 N   0  0  0  0  0  0
    9.4271   -2.1546   18.8603 C   0  0  0  0  0  0
   11.5443   -3.4347   19.2209 C   0  0  0  0  0  0
   11.5638   -3.7004   17.7373 C   0  0  0  0  0  0
   10.2366   -3.6429   17.1397 N   0  0  0  0  0  0
    7.9977   -2.7599   17.0291 C   0  0  0  0  0  0
    9.5665   -0.8000   23.2533 H   0  0  0  0  0  0
    8.6053    0.5964   22.7319 H   0  0  0  0  0  0
    6.3890   -0.7084   19.0101 H   0  0  0  0  0  0
   10.5456   -2.2366   20.6791 H   0  0  0  0  0  0
   11.3186   -1.3189   19.3986 H   0  0  0  0  0  0
    6.1151    0.6284   23.3495 H   0  0  0  0  0  0
    8.9139   -2.0271   25.1855 H   0  0  0  0  0  0
    7.2560   -2.5949   26.9022 H   0  0  0  0  0  0
    5.0238   -1.5543   26.8673 H   0  0  0  0  0  0
    8.8861    0.2169   20.5481 H   0  0  0  0  0  0
   11.1504   -4.3087   19.7397 H   0  0  0  0  0  0
   12.5667   -3.3209   19.5814 H   0  0  0  0  0  0
   12.0030   -4.6804   17.5505 H   0  0  0  0  0  0
   12.2132   -2.9747   17.2478 H   0  0  0  0  0  0
   10.0676   -4.1928   16.3096 H   0  0  0  0  0  0
    7.8835   -3.3258   16.1163 H   0  0  0  0  0  0
  1  6  1  0  0  0
  1 21  2  0  0  0
  2  3  1  0  0  0
  2  9  1  0  0  0
  2 11  2  0  0  0
  3  4  1  0  0  0
  3 22  1  0  0  0
  3 23  1  0  0  0
  4 10  2  0  0  0
  4 16  1  0  0  0
  5  6  2  0  0  0
  5 16  1  0  0  0
  5 17  1  0  0  0
  6 24  1  0  0  0
  7 17  2  0  0  0
  7 20  1  0  0  0
  7 21  1  0  0  0
  8 17  1  0  0  0
  8 18  1  0  0  0
  8 25  1  0  0  0
  8 26  1  0  0  0
  9 14  2  0  0  0
  9 27  1  0  0  0
 11 12  1  0  0  0
 11 28  1  0  0  0
 12 13  2  0  0  0
 12 29  1  0  0  0
 13 14  1  0  0  0
 13 30  1  0  0  0
 14 15  1  0  0  0
 16 31  1  0  0  0
 18 19  1  0  0  0
 18 32  1  0  0  0
 18 33  1  0  0  0
 19 20  1  0  0  0
 19 34  1  0  0  0
 19 35  1  0  0  0
 20 36  1  0  0  0
 21 37  1  0  0  0
M  END
> <s_m_entry_id>
715

> <s_m_entry_name>
7ggi.pdb.1_ligand

> <s_pdb_PDB_TITLE>
GROUP DEPOSITION SARS-COV-2 MAIN PROTEASE IN COMPLEX WITH INHIBITORS FROM THE COVID MOONSHOT -- CRYSTAL STRUCTURE OF SARS-COV-2 MAIN PROTEASE IN COMPLEX WITH MAT-POS-14AD9FE9-1 (MPRO-X12640)

> <s_pdb_PDB_ID>
7GGI

> <s_m_Source_File>
7ggi.pdb.gz

> <s_user_Compound_ID>
MAT-POS-14ad9fe9-1

> <s_user_Monomer-Dimer>
Monomer

> <s_user_xcode>
Mpro-x12640

$$$$
