7GGJ_ligand
                    3D
 Schrodinger Suite 2021-2.
 38 41  0  0  1  0            999 V2000
   11.4838   -3.6639   17.5938 N   0  0  0  0  0  0
    9.8232   -1.9697   24.5553 C   0  0  0  0  0  0
    9.7800   -0.6437   23.8375 C   0  0  0  0  0  0
    8.3582   -0.3763   23.2984 C   0  0  1  0  0  0
    7.9868   -1.2769   22.1167 C   0  0  0  0  0  0
    8.5384   -1.4490   19.6892 C   0  0  0  0  0  0
   10.8762   -2.3397   19.4884 C   0  0  0  0  0  0
    9.2590   -2.7105   17.7200 C   0  0  0  0  0  0
    7.2907   -1.3777   19.0729 C   0  0  0  0  0  0
    5.3576   -1.5412   26.1494 C   0  0  0  0  0  0
    7.0735   -2.0956   22.1818 O   0  0  0  0  0  0
    8.8963   -2.0295   25.6542 O   0  0  0  0  0  0
    6.6389   -2.0498   26.2477 C   0  0  0  0  0  0
    7.6224   -1.5960   25.3815 C   0  0  0  0  0  0
    7.3353   -0.6672   24.3786 C   0  0  0  0  0  0
    6.0529   -0.1290   24.3273 C   0  0  0  0  0  0
    5.0906   -0.5719   25.2093 C   0  0  0  0  0  0
    3.5162    0.1480   25.1614 Cl  0  0  0  0  0  0
    8.7945   -1.1632   21.0415 N   0  0  0  0  0  0
    7.9464   -2.5331   17.2253 C   0  0  0  0  0  0
    6.9912   -1.8834   17.8724 N   0  0  0  0  0  0
   10.2698   -3.4768   17.0899 C   0  0  0  0  0  0
   11.7611   -3.0922   18.7742 C   0  0  0  0  0  0
    9.5735   -2.1285   18.9758 C   0  0  0  0  0  0
   10.8333   -2.1499   24.9231 H   0  0  0  0  0  0
    9.6015   -2.7708   23.8502 H   0  0  0  0  0  0
   10.4864   -0.6570   23.0075 H   0  0  0  0  0  0
   10.0624    0.1518   24.5271 H   0  0  0  0  0  0
    8.2772    0.6678   22.9961 H   0  0  0  0  0  0
   11.1719   -1.9117   20.4348 H   0  0  0  0  0  0
    6.4701   -0.8824   19.5706 H   0  0  0  0  0  0
    4.5806   -1.9047   26.8055 H   0  0  0  0  0  0
    6.8683   -2.7950   26.9950 H   0  0  0  0  0  0
    5.8154    0.6321   23.5989 H   0  0  0  0  0  0
    9.7406   -0.8278   21.1538 H   0  0  0  0  0  0
    7.6723   -2.9399   16.2631 H   0  0  0  0  0  0
   10.0036   -3.9224   16.1428 H   0  0  0  0  0  0
   12.7384   -3.2149   19.2173 H   0  0  0  0  0  0
  1 22  1  0  0  0
  1 23  2  0  0  0
  2  3  1  0  0  0
  2 12  1  0  0  0
  2 25  1  0  0  0
  2 26  1  0  0  0
  3  4  1  0  0  0
  3 27  1  0  0  0
  3 28  1  0  0  0
  4  5  1  0  0  0
  4 15  1  0  0  0
  4 29  1  0  0  0
  5 11  2  0  0  0
  5 19  1  0  0  0
  6  9  2  0  0  0
  6 19  1  0  0  0
  6 24  1  0  0  0
  7 23  1  0  0  0
  7 24  2  0  0  0
  7 30  1  0  0  0
  8 20  1  0  0  0
  8 22  2  0  0  0
  8 24  1  0  0  0
  9 21  1  0  0  0
  9 31  1  0  0  0
 10 13  1  0  0  0
 10 17  2  0  0  0
 10 32  1  0  0  0
 12 14  1  0  0  0
 13 14  2  0  0  0
 13 33  1  0  0  0
 14 15  1  0  0  0
 15 16  2  0  0  0
 16 17  1  0  0  0
 16 34  1  0  0  0
 17 18  1  0  0  0
 19 35  1  0  0  0
 20 21  2  0  0  0
 20 36  1  0  0  0
 22 37  1  0  0  0
 23 38  1  0  0  0
M  END
> <s_m_entry_id>
717

> <s_m_entry_name>
7ggj.pdb.1_ligand

> <s_pdb_PDB_TITLE>
GROUP DEPOSITION SARS-COV-2 MAIN PROTEASE IN COMPLEX WITH INHIBITORS FROM THE COVID MOONSHOT -- CRYSTAL STRUCTURE OF SARS-COV-2 MAIN PROTEASE IN COMPLEX WITH BEN-DND-4F474D93-1 (MPRO-X12659)

> <s_pdb_PDB_ID>
7GGJ

> <s_m_Source_File>
7ggj.pdb.gz

> <s_user_Compound_ID>
BEN-DND-4f474d93-1

> <s_user_Monomer-Dimer>
Monomer

> <s_user_xcode>
Mpro-x12659

$$$$
