7GGK_ligand
                    3D
 Schrodinger Suite 2021-2.
 56 59  0  0  1  0            999 V2000
    8.2046   -0.6870   23.2582 N   0  0  0  0  0  0
    7.9796   -2.7693   17.2163 C   0  0  0  0  0  0
    9.1519   -2.8514   18.0039 C   0  0  0  0  0  0
   10.2990   -3.5850   17.6195 C   0  0  0  0  0  0
   11.4088   -3.6001   18.4130 C   0  0  0  0  0  0
   11.4253   -2.9149   19.6208 C   0  0  0  0  0  0
    9.1686   -2.1299   19.2287 C   0  0  0  0  0  0
   11.1150    1.6385   24.1601 C   0  0  0  0  0  0
   11.2005    3.4167   25.9641 C   0  0  0  0  0  0
   12.9462    3.4011   24.1532 C   0  0  0  0  0  0
    6.7478   -1.3948   25.0669 C   0  0  0  0  0  0
    5.6815   -0.5204   24.7099 C   0  0  0  0  0  0
    4.5187   -0.7870   25.4710 C   0  0  0  0  0  0
    7.2564   -2.3554   22.0723 O   0  0  0  0  0  0
    7.7896   -1.2546   22.1011 C   0  0  0  0  0  0
    8.0298   -0.4820   20.8174 C   0  0  0  0  0  0
    8.0259   -1.3570   19.5793 C   0  0  0  0  0  0
   10.3391   -2.1958   20.0272 C   0  0  0  0  0  0
    6.9052   -2.0656   17.5571 N   0  0  0  0  0  0
    6.9508   -1.3848   18.7106 C   0  0  0  0  0  0
    8.1341   -1.4297   24.5022 C   0  0  0  0  0  0
    6.2671   -2.4813   26.2972 S   0  0  0  0  0  0
    4.6883   -1.8022   26.3465 C   0  0  0  0  0  0
    8.7584    0.6729   23.3488 C   0  0  0  0  0  0
   10.2821    0.6464   23.3205 C   0  0  0  0  0  0
   12.0386    2.5069   23.3049 C   0  0  0  0  0  0
   12.1441    4.2680   25.1166 C   0  0  0  0  0  0
   10.3023    2.5369   25.0897 C   0  0  0  0  0  0
    7.9223   -3.2983   16.2765 H   0  0  0  0  0  0
   10.3004   -4.1383   16.6920 H   0  0  0  0  0  0
   12.2862   -4.1488   18.1040 H   0  0  0  0  0  0
   12.3036   -2.9480   20.2485 H   0  0  0  0  0  0
   11.7610    1.0364   24.7990 H   0  0  0  0  0  0
   10.5810    4.0671   26.5815 H   0  0  0  0  0  0
   11.7844    2.7859   26.6343 H   0  0  0  0  0  0
   13.5400    4.0397   23.4992 H   0  0  0  0  0  0
   13.6421    2.7803   24.7175 H   0  0  0  0  0  0
    5.8285    0.2252   23.9425 H   0  0  0  0  0  0
    3.6252   -0.2007   25.3152 H   0  0  0  0  0  0
    8.9815    0.0451   20.8850 H   0  0  0  0  0  0
    7.2710    0.2937   20.7146 H   0  0  0  0  0  0
   10.3631   -1.6668   20.9685 H   0  0  0  0  0  0
    6.0553   -0.8270   18.9415 H   0  0  0  0  0  0
    8.8301   -0.9989   25.2220 H   0  0  0  0  0  0
    8.4276   -2.4642   24.3244 H   0  0  0  0  0  0
    3.8722   -2.1068   26.9849 H   0  0  0  0  0  0
    8.4207    1.1413   24.2733 H   0  0  0  0  0  0
    8.3903    1.2709   22.5152 H   0  0  0  0  0  0
   10.6204   -0.3672   23.5359 H   0  0  0  0  0  0
   10.6156    0.6963   22.2839 H   0  0  0  0  0  0
   11.4388    3.1272   22.6389 H   0  0  0  0  0  0
   12.6513    1.8676   22.6693 H   0  0  0  0  0  0
   12.8266    4.8123   25.7693 H   0  0  0  0  0  0
   11.5650    4.9983   24.5515 H   0  0  0  0  0  0
    9.6680    1.9204   25.7266 H   0  0  0  0  0  0
    9.6419    3.1695   24.4966 H   0  0  0  0  0  0
  1 15  1  0  0  0
  1 21  1  0  0  0
  1 24  1  0  0  0
  2  3  1  0  0  0
  2 19  2  0  0  0
  2 29  1  0  0  0
  3  4  1  0  0  0
  3  7  2  0  0  0
  4  5  2  0  0  0
  4 30  1  0  0  0
  5  6  1  0  0  0
  5 31  1  0  0  0
  6 18  2  0  0  0
  6 32  1  0  0  0
  7 17  1  0  0  0
  7 18  1  0  0  0
  8 25  1  0  0  0
  8 26  1  0  0  0
  8 28  1  0  0  0
  8 33  1  0  0  0
  9 27  1  0  0  0
  9 28  1  0  0  0
  9 34  1  0  0  0
  9 35  1  0  0  0
 10 26  1  0  0  0
 10 27  1  0  0  0
 10 36  1  0  0  0
 10 37  1  0  0  0
 11 12  2  0  0  0
 11 21  1  0  0  0
 11 22  1  0  0  0
 12 13  1  0  0  0
 12 38  1  0  0  0
 13 23  2  0  0  0
 13 39  1  0  0  0
 14 15  2  0  0  0
 15 16  1  0  0  0
 16 17  1  0  0  0
 16 40  1  0  0  0
 16 41  1  0  0  0
 17 20  2  0  0  0
 18 42  1  0  0  0
 19 20  1  0  0  0
 20 43  1  0  0  0
 21 44  1  0  0  0
 21 45  1  0  0  0
 22 23  1  0  0  0
 23 46  1  0  0  0
 24 25  1  0  0  0
 24 47  1  0  0  0
 24 48  1  0  0  0
 25 49  1  0  0  0
 25 50  1  0  0  0
 26 51  1  0  0  0
 26 52  1  0  0  0
 27 53  1  0  0  0
 27 54  1  0  0  0
 28 55  1  0  0  0
 28 56  1  0  0  0
M  END
> <s_m_entry_id>
719

> <s_m_entry_name>
7ggk.pdb.1_ligand

> <s_pdb_PDB_TITLE>
GROUP DEPOSITION SARS-COV-2 MAIN PROTEASE IN COMPLEX WITH INHIBITORS FROM THE COVID MOONSHOT -- CRYSTAL STRUCTURE OF SARS-COV-2 MAIN PROTEASE IN COMPLEX WITH ALP-POS-64A710FA-1 (MPRO-X12661)

> <s_pdb_PDB_ID>
7GGK

> <s_m_Source_File>
7ggk.pdb.gz

> <s_user_Compound_ID>
ALP-POS-64a710fa-1

> <s_user_Monomer-Dimer>
Monomer

> <s_user_xcode>
Mpro-x12661

$$$$
