7GGL_ligand
                    3D
 Schrodinger Suite 2021-2.
 41 44  0  0  1  0            999 V2000
    7.2005   -1.9286   17.3895 N   0  0  0  0  0  0
    6.8982   -0.2590   23.8910 C   0  0  0  0  0  0
    5.9990    0.0549   24.8929 C   0  0  0  0  0  0
    9.0361   -1.3247   23.0665 C   0  0  2  0  0  0
   10.1082   -0.2125   23.0151 C   0  0  0  0  0  0
    9.7673    0.8282   21.9565 C   0  0  0  0  0  0
    8.3661   -1.6866   21.7499 C   0  0  0  0  0  0
    8.1302   -2.7117   16.8640 C   0  0  0  0  0  0
   10.3220   -3.8864   16.9236 C   0  0  0  0  0  0
   11.7034   -3.6653   18.8580 C   0  0  0  0  0  0
    7.5281   -2.5734   21.7024 O   0  0  0  0  0  0
    7.9923   -1.0755   24.1406 C   0  0  0  0  0  0
    8.1432   -1.6145   25.4102 C   0  0  0  0  0  0
    7.2478   -1.3185   26.4196 C   0  0  0  0  0  0
    6.1992   -0.4606   26.1547 C   0  0  0  0  0  0
    5.1874    0.0775   27.4659 Cl  0  0  0  0  0  0
    8.7724   -1.0161   20.6273 N   0  0  0  0  0  0
    9.6506    0.1744   20.5979 C   0  0  0  0  0  0
    8.5941   -1.6204   19.3423 C   0  0  0  0  0  0
    9.5906   -2.4795   18.7890 C   0  0  0  0  0  0
   10.7958   -2.8355   19.4502 C   0  0  0  0  0  0
   11.4700   -4.1837   17.5954 C   0  0  0  0  0  0
    9.3508   -3.0312   17.4997 C   0  0  0  0  0  0
    7.4466   -1.4000   18.5937 C   0  0  0  0  0  0
    6.7551    0.1328   22.8948 H   0  0  0  0  0  0
    5.1556    0.6951   24.6804 H   0  0  0  0  0  0
    9.5659   -2.2244   23.3796 H   0  0  0  0  0  0
   11.0790   -0.6543   22.7902 H   0  0  0  0  0  0
   10.1770    0.2705   23.9898 H   0  0  0  0  0  0
   10.5494    1.5870   21.9283 H   0  0  0  0  0  0
    8.8224    1.3085   22.2106 H   0  0  0  0  0  0
    7.9785   -3.1508   15.8890 H   0  0  0  0  0  0
   10.1465   -4.3039   15.9431 H   0  0  0  0  0  0
   12.6158   -3.9243   19.3746 H   0  0  0  0  0  0
    8.9702   -2.2762   25.6212 H   0  0  0  0  0  0
    7.3739   -1.7563   27.3987 H   0  0  0  0  0  0
   10.6417   -0.1149   20.2484 H   0  0  0  0  0  0
    9.2593    0.8959   19.8807 H   0  0  0  0  0  0
   10.9892   -2.4394   20.4361 H   0  0  0  0  0  0
   12.2084   -4.8294   17.1435 H   0  0  0  0  0  0
    6.7215   -0.7456   19.0545 H   0  0  0  0  0  0
  1  8  2  0  0  0
  1 24  1  0  0  0
  2  3  1  0  0  0
  2 12  2  0  0  0
  2 25  1  0  0  0
  3 15  2  0  0  0
  3 26  1  0  0  0
  4  5  1  0  0  0
  4  7  1  0  0  0
  4 12  1  0  0  0
  4 27  1  0  0  0
  5  6  1  0  0  0
  5 28  1  0  0  0
  5 29  1  0  0  0
  6 18  1  0  0  0
  6 30  1  0  0  0
  6 31  1  0  0  0
  7 11  2  0  0  0
  7 17  1  0  0  0
  8 23  1  0  0  0
  8 32  1  0  0  0
  9 22  1  0  0  0
  9 23  2  0  0  0
  9 33  1  0  0  0
 10 21  1  0  0  0
 10 22  2  0  0  0
 10 34  1  0  0  0
 12 13  1  0  0  0
 13 14  2  0  0  0
 13 35  1  0  0  0
 14 15  1  0  0  0
 14 36  1  0  0  0
 15 16  1  0  0  0
 17 18  1  0  0  0
 17 19  1  0  0  0
 18 37  1  0  0  0
 18 38  1  0  0  0
 19 20  1  0  0  0
 19 24  2  0  0  0
 20 21  2  0  0  0
 20 23  1  0  0  0
 21 39  1  0  0  0
 22 40  1  0  0  0
 24 41  1  0  0  0
M  END
> <s_m_entry_id>
721

> <s_m_entry_name>
7ggl.pdb.1_ligand

> <s_pdb_PDB_TITLE>
GROUP DEPOSITION SARS-COV-2 MAIN PROTEASE IN COMPLEX WITH INHIBITORS FROM THE COVID MOONSHOT -- CRYSTAL STRUCTURE OF SARS-COV-2 MAIN PROTEASE IN COMPLEX WITH ALP-POS-CE760D3F-8 (MPRO-X12674)

> <s_pdb_PDB_ID>
7GGL

> <s_m_Source_File>
7ggl.pdb.gz

> <s_user_Compound_ID>
ALP-POS-ce760d3f-8

> <s_user_Monomer-Dimer>
Monomer

> <s_user_xcode>
Mpro-x12674

$$$$
