7GGM_ligand
                    3D
 Schrodinger Suite 2021-2.
 33 35  0  0  1  0            999 V2000
    6.8839   -2.0173   17.4566 N   0  0  0  0  0  0
    7.6106   -0.6511   24.2228 C   0  0  0  0  0  0
    8.3673   -0.2525   22.9813 C   0  0  0  0  0  0
    7.9122   -1.1063   21.8155 C   0  0  0  0  0  0
    8.1908   -1.3416   19.3785 C   0  0  0  0  0  0
    7.0372   -1.3411   18.6001 C   0  0  0  0  0  0
    9.1505   -2.8333   17.6985 C   0  0  0  0  0  0
   11.5390   -3.0019   19.1289 C   0  0  0  0  0  0
    9.2933   -2.1244   18.9228 C   0  0  0  0  0  0
    7.2558   -2.1320   21.9810 O   0  0  0  0  0  0
    8.0889   -1.6103   25.1078 C   0  0  0  0  0  0
    7.2749   -2.0141   26.1542 C   0  0  0  0  0  0
    6.0231   -1.4393   26.3163 C   0  0  0  0  0  0
    6.4051   -0.0774   24.3644 N   0  0  0  0  0  0
    5.6676   -0.4675   25.3950 C   0  0  0  0  0  0
    4.1798    0.4056   25.6115 Cl  0  0  0  0  0  0
    8.3160   -0.6723   20.6072 N   0  0  0  0  0  0
   10.5178   -2.2443   19.6257 C   0  0  0  0  0  0
   11.4014   -3.6715   17.9237 C   0  0  0  0  0  0
   10.2358   -3.6063   17.2205 C   0  0  0  0  0  0
    7.9140   -2.7297   17.0216 C   0  0  0  0  0  0
    9.4350   -0.3994   23.1440 H   0  0  0  0  0  0
    8.1742    0.7972   22.7598 H   0  0  0  0  0  0
    6.2279   -0.7369   18.9828 H   0  0  0  0  0  0
   12.4663   -3.0840   19.6764 H   0  0  0  0  0  0
    9.0768   -2.0251   24.9724 H   0  0  0  0  0  0
    7.6157   -2.7747   26.8410 H   0  0  0  0  0  0
    5.3847   -1.7555   27.1280 H   0  0  0  0  0  0
    8.7647    0.2281   20.5180 H   0  0  0  0  0  0
   10.6373   -1.7267   20.5660 H   0  0  0  0  0  0
   12.2230   -4.2529   17.5322 H   0  0  0  0  0  0
   10.1438   -4.1503   16.2921 H   0  0  0  0  0  0
    7.8381   -3.2784   16.0945 H   0  0  0  0  0  0
  1  6  1  0  0  0
  1 21  2  0  0  0
  2  3  1  0  0  0
  2 11  1  0  0  0
  2 14  2  0  0  0
  3  4  1  0  0  0
  3 22  1  0  0  0
  3 23  1  0  0  0
  4 10  2  0  0  0
  4 17  1  0  0  0
  5  6  2  0  0  0
  5  9  1  0  0  0
  5 17  1  0  0  0
  6 24  1  0  0  0
  7  9  1  0  0  0
  7 20  2  0  0  0
  7 21  1  0  0  0
  8 18  1  0  0  0
  8 19  2  0  0  0
  8 25  1  0  0  0
  9 18  2  0  0  0
 11 12  2  0  0  0
 11 26  1  0  0  0
 12 13  1  0  0  0
 12 27  1  0  0  0
 13 15  2  0  0  0
 13 28  1  0  0  0
 14 15  1  0  0  0
 15 16  1  0  0  0
 17 29  1  0  0  0
 18 30  1  0  0  0
 19 20  1  0  0  0
 19 31  1  0  0  0
 20 32  1  0  0  0
 21 33  1  0  0  0
M  END
> <s_m_entry_id>
723

> <s_m_entry_name>
7ggm.pdb.1_ligand

> <s_pdb_PDB_TITLE>
GROUP DEPOSITION SARS-COV-2 MAIN PROTEASE IN COMPLEX WITH INHIBITORS FROM THE COVID MOONSHOT -- CRYSTAL STRUCTURE OF SARS-COV-2 MAIN PROTEASE IN COMPLEX WITH MAT-POS-AFD4D4FD-2 (MPRO-X12677)

> <s_pdb_PDB_ID>
7GGM

> <s_m_Source_File>
7ggm.pdb.gz

> <s_user_Compound_ID>
MAT-POS-afd4d4fd-2

> <s_user_Monomer-Dimer>
Monomer

> <s_user_xcode>
Mpro-x12677

$$$$
