7GGN_ligand
                    3D
 Schrodinger Suite 2021-2.
 43 46  0  0  1  0            999 V2000
    9.7744   -0.3702   20.8351 N   0  0  0  0  0  0
    7.3138   -0.5917   24.2579 C   0  0  0  0  0  0
    6.0936    0.0786   24.2704 C   0  0  0  0  0  0
    8.7037    0.7542   22.7390 C   0  0  0  0  0  0
    9.9720    0.6205   21.8991 C   0  0  0  0  0  0
    9.4106   -1.6866   21.3513 C   0  0  0  0  0  0
    9.8553   -0.1340   19.5146 C   0  0  0  0  0  0
    7.8394   -2.4179   17.2339 C   0  0  0  0  0  0
   11.1119   -4.0712   16.7033 C   0  0  0  0  0  0
   12.7980   -3.0525   18.0773 C   0  0  0  0  0  0
    6.6649   -2.6104   16.8914 O   0  0  0  0  0  0
    8.2448   -1.3817   18.1268 C   0  0  0  0  0  0
    8.8328   -3.2572   16.7991 N   0  0  0  0  0  0
   10.1643   -3.1794   17.2030 C   0  0  0  0  0  0
   10.5479   -2.1934   18.1325 C   0  0  0  0  0  0
   11.8662   -2.1637   18.5883 C   0  0  0  0  0  0
   12.4266   -3.9898   17.1362 C   0  0  0  0  0  0
    9.5274   -1.2497   18.5767 C   0  0  0  0  0  0
   10.2242    0.9452   19.0617 O   0  0  0  0  0  0
    8.2316   -1.6576   22.2837 C   0  0  0  0  0  0
    7.4269   -2.5780   22.2792 O   0  0  0  0  0  0
    8.1089   -0.5555   23.0778 N   0  0  0  0  0  0
    5.2754   -0.0484   25.3730 C   0  0  0  0  0  0
    3.7111    0.7077   25.3430 Cl  0  0  0  0  0  0
    7.7100   -1.3469   25.3599 C   0  0  0  0  0  0
    6.8751   -1.4428   26.4627 C   0  0  0  0  0  0
    5.6469   -0.7954   26.4760 C   0  0  0  0  0  0
    5.8022    0.6854   23.4258 H   0  0  0  0  0  0
    7.9726    1.3551   22.1982 H   0  0  0  0  0  0
    8.9321    1.2965   23.6565 H   0  0  0  0  0  0
   10.2171    1.5856   21.4555 H   0  0  0  0  0  0
   10.7987    0.3081   22.5371 H   0  0  0  0  0  0
   10.2673   -2.1233   21.8648 H   0  0  0  0  0  0
    9.1964   -2.3556   20.5178 H   0  0  0  0  0  0
   10.8206   -4.8209   15.9825 H   0  0  0  0  0  0
   13.8229   -3.0143   18.4156 H   0  0  0  0  0  0
    7.5240   -0.6575   18.4765 H   0  0  0  0  0  0
    8.6201   -3.9932   16.1409 H   0  0  0  0  0  0
   12.1598   -1.4466   19.3405 H   0  0  0  0  0  0
   13.1696   -4.6638   16.7360 H   0  0  0  0  0  0
    8.6634   -1.8541   25.3523 H   0  0  0  0  0  0
    7.1783   -2.0246   27.3206 H   0  0  0  0  0  0
    4.9859   -0.8671   27.3271 H   0  0  0  0  0  0
  1  5  1  0  0  0
  1  6  1  0  0  0
  1  7  1  0  0  0
  2  3  1  0  0  0
  2 22  1  0  0  0
  2 25  2  0  0  0
  3 23  2  0  0  0
  3 28  1  0  0  0
  4  5  1  0  0  0
  4 22  1  0  0  0
  4 29  1  0  0  0
  4 30  1  0  0  0
  5 31  1  0  0  0
  5 32  1  0  0  0
  6 20  1  0  0  0
  6 33  1  0  0  0
  6 34  1  0  0  0
  7 18  1  0  0  0
  7 19  2  0  0  0
  8 11  2  0  0  0
  8 12  1  0  0  0
  8 13  1  0  0  0
  9 14  1  0  0  0
  9 17  2  0  0  0
  9 35  1  0  0  0
 10 16  2  0  0  0
 10 17  1  0  0  0
 10 36  1  0  0  0
 12 18  2  0  0  0
 12 37  1  0  0  0
 13 14  1  0  0  0
 13 38  1  0  0  0
 14 15  2  0  0  0
 15 16  1  0  0  0
 15 18  1  0  0  0
 16 39  1  0  0  0
 17 40  1  0  0  0
 20 21  2  0  0  0
 20 22  1  0  0  0
 23 24  1  0  0  0
 23 27  1  0  0  0
 25 26  1  0  0  0
 25 41  1  0  0  0
 26 27  2  0  0  0
 26 42  1  0  0  0
 27 43  1  0  0  0
M  END
> <s_m_entry_id>
725

> <s_m_entry_name>
7ggn.pdb.1_ligand

> <s_pdb_PDB_TITLE>
GROUP DEPOSITION SARS-COV-2 MAIN PROTEASE IN COMPLEX WITH INHIBITORS FROM THE COVID MOONSHOT -- CRYSTAL STRUCTURE OF SARS-COV-2 MAIN PROTEASE IN COMPLEX WITH ERI-UCB-D6DE1F3C-1 (MPRO-X12679)

> <s_pdb_PDB_ID>
7GGN

> <s_m_Source_File>
7ggn.pdb.gz

> <s_user_Compound_ID>
ERI-UCB-d6de1f3c-1

> <s_user_Monomer-Dimer>
Monomer

> <s_user_xcode>
Mpro-x12679

$$$$
