7GGO_ligand
                    3D
 Schrodinger Suite 2021-2.
 38 40  0  0  1  0            999 V2000
    8.7434   -3.0176   17.1541 N   0  0  0  0  0  0
    9.7474   -2.8396   24.5833 C   0  0  0  0  0  0
    9.9653   -1.5126   23.9051 C   0  0  0  0  0  0
    8.6257   -0.9617   23.3868 C   0  0  1  0  0  0
    8.2089   -1.7264   22.1287 C   0  0  0  0  0  0
    8.7798   -2.1887   19.7944 C   0  0  2  0  0  0
   10.0061   -3.2380   17.8890 C   0  0  0  0  0  0
    7.5304   -1.1242   24.4209 C   0  0  0  0  0  0
    6.5274   -2.7440   17.1395 O   0  0  0  0  0  0
    7.6190   -2.4916   17.6348 C   0  0  0  0  0  0
   10.1122   -2.2910   19.0739 C   0  0  0  0  0  0
    7.7242   -1.6183   18.8495 C   0  0  0  0  0  0
    8.8781   -1.4013   21.0199 N   0  0  0  0  0  0
    7.3587   -2.6124   22.1485 O   0  0  0  0  0  0
    8.8596   -2.7106   25.7099 O   0  0  0  0  0  0
    6.3303   -0.4163   24.3380 C   0  0  0  0  0  0
    5.3320   -0.6502   25.2626 C   0  0  0  0  0  0
    3.8458    0.2441   25.1466 Cl  0  0  0  0  0  0
    7.6844   -2.0419   25.4660 C   0  0  0  0  0  0
    6.6667   -2.2757   26.3747 C   0  0  0  0  0  0
    5.4810   -1.5743   26.2724 C   0  0  0  0  0  0
    8.7904   -3.3140   16.1898 H   0  0  0  0  0  0
   10.7052   -3.2367   24.9198 H   0  0  0  0  0  0
    9.3268   -3.5474   23.8691 H   0  0  0  0  0  0
   10.6529   -1.6406   23.0691 H   0  0  0  0  0  0
   10.3969   -0.8080   24.6160 H   0  0  0  0  0  0
    8.7396    0.0950   23.1452 H   0  0  0  0  0  0
    8.4711   -3.1972   20.0698 H   0  0  0  0  0  0
   10.8496   -3.0756   17.2179 H   0  0  0  0  0  0
   10.0450   -4.2681   18.2430 H   0  0  0  0  0  0
   10.8713   -2.6577   19.7648 H   0  0  0  0  0  0
   10.4122   -1.3034   18.7235 H   0  0  0  0  0  0
    8.0125   -0.6111   18.5487 H   0  0  0  0  0  0
    6.7608   -1.5864   19.3583 H   0  0  0  0  0  0
    9.4760   -0.5873   21.0112 H   0  0  0  0  0  0
    6.1854    0.3110   23.5528 H   0  0  0  0  0  0
    6.8010   -3.0045   27.1603 H   0  0  0  0  0  0
    4.6763   -1.7435   26.9725 H   0  0  0  0  0  0
  1  7  1  0  0  0
  1 10  1  0  0  0
  1 22  1  0  0  0
  2  3  1  0  0  0
  2 15  1  0  0  0
  2 23  1  0  0  0
  2 24  1  0  0  0
  3  4  1  0  0  0
  3 25  1  0  0  0
  3 26  1  0  0  0
  4  5  1  0  0  0
  4  8  1  0  0  0
  4 27  1  0  0  0
  5 13  1  0  0  0
  5 14  2  0  0  0
  6 11  1  0  0  0
  6 12  1  0  0  0
  6 13  1  0  0  0
  6 28  1  0  0  0
  7 11  1  0  0  0
  7 29  1  0  0  0
  7 30  1  0  0  0
  8 16  1  0  0  0
  8 19  2  0  0  0
  9 10  2  0  0  0
 10 12  1  0  0  0
 11 31  1  0  0  0
 11 32  1  0  0  0
 12 33  1  0  0  0
 12 34  1  0  0  0
 13 35  1  0  0  0
 15 19  1  0  0  0
 16 17  2  0  0  0
 16 36  1  0  0  0
 17 18  1  0  0  0
 17 21  1  0  0  0
 19 20  1  0  0  0
 20 21  2  0  0  0
 20 37  1  0  0  0
 21 38  1  0  0  0
M  END
> <s_m_entry_id>
727

> <s_m_entry_name>
7ggo.pdb.1_ligand

> <s_pdb_PDB_TITLE>
GROUP DEPOSITION SARS-COV-2 MAIN PROTEASE IN COMPLEX WITH INHIBITORS FROM THE COVID MOONSHOT -- CRYSTAL STRUCTURE OF SARS-COV-2 MAIN PROTEASE IN COMPLEX WITH ALP-POS-8B8A49E1-4 (MPRO-X12682)

> <s_pdb_PDB_ID>
7GGO

> <s_m_Source_File>
7ggo.pdb.gz

> <s_user_Compound_ID>
ALP-POS-8b8a49e1-4

> <s_user_Monomer-Dimer>
Monomer

> <s_user_xcode>
Mpro-x12682

$$$$
