7GGP_ligand
                    3D
 Schrodinger Suite 2021-2.
 41 45  0  0  1  0            999 V2000
    8.3944   -0.9815   21.0073 N   0  0  0  0  0  0
    9.4072   -3.0905   24.7152 C   0  0  0  0  0  0
    9.7784   -1.8979   23.8601 C   0  0  0  0  0  0
    8.5315   -1.1441   23.3510 C   0  0  1  0  0  0
    8.9164    0.2287   21.4793 C   0  0  0  0  0  0
    8.0361   -1.8219   22.0533 C   0  0  0  0  0  0
    7.1519   -1.2981   18.9084 C   0  0  0  0  0  0
   10.2422   -3.5341   17.2400 C   0  0  0  0  0  0
   11.6702   -3.0259   19.0909 C   0  0  0  0  0  0
    9.4103   -2.1452   19.0794 C   0  0  0  0  0  0
    7.3996   -2.8550   21.9767 O   0  0  0  0  0  0
    8.6101   -2.6942   25.8375 O   0  0  0  0  0  0
    7.3934   -1.1862   24.3646 C   0  0  0  0  0  0
    7.4698   -2.0131   25.4926 C   0  0  0  0  0  0
    6.4006   -2.1707   26.3563 C   0  0  0  0  0  0
    5.2374   -1.4613   26.1295 C   0  0  0  0  0  0
    6.2193   -0.4603   24.1640 C   0  0  0  0  0  0
    5.1741   -0.5945   25.0625 C   0  0  0  0  0  0
    3.7777    0.4320   24.8924 Cl  0  0  0  0  0  0
    9.3769    1.1205   20.7836 O   0  0  0  0  0  0
    8.8931    0.1711   22.8327 N   0  0  0  0  0  0
    8.3423   -1.3716   19.6217 C   0  0  0  0  0  0
   10.6801   -2.3014   19.6937 C   0  0  0  0  0  0
   11.4535   -3.6353   17.8641 C   0  0  0  0  0  0
    9.1901   -2.7859   17.8274 C   0  0  0  0  0  0
    7.9195   -2.6217   17.2179 C   0  0  0  0  0  0
    6.9291   -1.9055   17.7358 N   0  0  0  0  0  0
   10.3147   -3.5796   25.0693 H   0  0  0  0  0  0
    8.8533   -3.8105   24.1128 H   0  0  0  0  0  0
   10.3723   -2.2325   23.0095 H   0  0  0  0  0  0
   10.4026   -1.2171   24.4388 H   0  0  0  0  0  0
    6.3256   -0.7200   19.2949 H   0  0  0  0  0  0
   10.0803   -4.0258   16.2922 H   0  0  0  0  0  0
   12.6326   -3.1282   19.5701 H   0  0  0  0  0  0
    6.4806   -2.8430   27.1977 H   0  0  0  0  0  0
    4.3897   -1.5900   26.7863 H   0  0  0  0  0  0
    6.1310    0.1996   23.3136 H   0  0  0  0  0  0
    9.1140    0.9927   23.3770 H   0  0  0  0  0  0
   10.8580   -1.8370   20.6524 H   0  0  0  0  0  0
   12.2539   -4.1941   17.4021 H   0  0  0  0  0  0
    7.7096   -3.0960   16.2706 H   0  0  0  0  0  0
  1  5  1  0  0  0
  1  6  1  0  0  0
  1 22  1  0  0  0
  2  3  1  0  0  0
  2 12  1  0  0  0
  2 28  1  0  0  0
  2 29  1  0  0  0
  3  4  1  0  0  0
  3 30  1  0  0  0
  3 31  1  0  0  0
  4  6  1  0  0  0
  4 13  1  0  0  0
  4 21  1  0  0  0
  5 20  2  0  0  0
  5 21  1  0  0  0
  6 11  2  0  0  0
  7 22  2  0  0  0
  7 27  1  0  0  0
  7 32  1  0  0  0
  8 24  1  0  0  0
  8 25  2  0  0  0
  8 33  1  0  0  0
  9 23  1  0  0  0
  9 24  2  0  0  0
  9 34  1  0  0  0
 10 22  1  0  0  0
 10 23  2  0  0  0
 10 25  1  0  0  0
 12 14  1  0  0  0
 13 14  1  0  0  0
 13 17  2  0  0  0
 14 15  2  0  0  0
 15 16  1  0  0  0
 15 35  1  0  0  0
 16 18  2  0  0  0
 16 36  1  0  0  0
 17 18  1  0  0  0
 17 37  1  0  0  0
 18 19  1  0  0  0
 21 38  1  0  0  0
 23 39  1  0  0  0
 24 40  1  0  0  0
 25 26  1  0  0  0
 26 27  2  0  0  0
 26 41  1  0  0  0
M  END
> <s_m_entry_id>
729

> <s_m_entry_name>
7ggp.pdb.1_ligand

> <s_pdb_PDB_TITLE>
GROUP DEPOSITION SARS-COV-2 MAIN PROTEASE IN COMPLEX WITH INHIBITORS FROM THE COVID MOONSHOT -- CRYSTAL STRUCTURE OF SARS-COV-2 MAIN PROTEASE IN COMPLEX WITH VLA-UCB-29506327-1 (MPRO-X12686)

> <s_pdb_PDB_ID>
7GGP

> <s_m_Source_File>
7ggp.pdb.gz

> <s_user_Compound_ID>
VLA-UCB-29506327-1

> <s_user_Monomer-Dimer>
Monomer

> <s_user_xcode>
Mpro-x12686

$$$$
