7GGQ_ligand
                    3D
 Schrodinger Suite 2021-2.
 40 43  0  0  1  0            999 V2000
    8.3483   -0.8212   20.5639 N   0  0  0  0  0  0
   10.0060   -2.1505   23.9195 C   0  0  0  0  0  0
    9.8717   -0.7589   23.3315 C   0  0  0  0  0  0
    8.4100   -0.4717   22.9567 C   0  0  1  0  0  0
    7.9543   -1.3043   21.7588 C   0  0  0  0  0  0
    8.2035   -1.4358   19.3091 C   0  0  0  0  0  0
    7.8598   -2.8006   16.9501 C   0  0  0  0  0  0
   11.3892   -3.7116   17.7213 C   0  0  0  0  0  0
   10.5573   -2.2891   19.4538 C   0  0  0  0  0  0
    7.4791   -0.7715   24.1103 C   0  0  0  0  0  0
    7.2879   -2.3308   21.8879 O   0  0  0  0  0  0
    9.0672   -2.3421   25.0176 N   0  0  0  0  0  0
    7.8473   -1.7108   25.0840 C   0  0  0  0  0  0
    6.9444   -2.0536   26.0940 C   0  0  0  0  0  0
    5.6905   -1.4693   26.1348 C   0  0  0  0  0  0
    6.2288   -0.1746   24.1801 C   0  0  0  0  0  0
    5.3558   -0.5310   25.1819 C   0  0  0  0  0  0
    3.7967    0.2307   25.2428 Cl  0  0  0  0  0  0
    9.2987   -2.2006   18.8090 C   0  0  0  0  0  0
   11.5715   -3.0256   18.9122 C   0  0  0  0  0  0
   10.1920   -3.6690   17.0699 C   0  0  0  0  0  0
    9.1168   -2.9091   17.5909 C   0  0  0  0  0  0
    6.8443   -2.0804   17.4147 N   0  0  0  0  0  0
    7.0270   -1.4193   18.5637 C   0  0  0  0  0  0
    8.8034    0.0787   20.5082 H   0  0  0  0  0  0
   11.0236   -2.2943   24.2827 H   0  0  0  0  0  0
    9.8139   -2.8922   23.1442 H   0  0  0  0  0  0
   10.4969   -0.6786   22.4423 H   0  0  0  0  0  0
   10.2109   -0.0226   24.0602 H   0  0  0  0  0  0
    8.3179    0.5840   22.7012 H   0  0  0  0  0  0
    7.6797   -3.3232   16.0223 H   0  0  0  0  0  0
   12.2001   -4.2873   17.3001 H   0  0  0  0  0  0
   10.7241   -1.7700   20.3860 H   0  0  0  0  0  0
    9.3495   -2.9742   25.7531 H   0  0  0  0  0  0
    7.2242   -2.7766   26.8459 H   0  0  0  0  0  0
    4.9888   -1.7499   26.9063 H   0  0  0  0  0  0
    5.9431    0.5675   23.4493 H   0  0  0  0  0  0
   12.5230   -3.0706   19.4211 H   0  0  0  0  0  0
   10.0584   -4.2176   16.1492 H   0  0  0  0  0  0
    6.1796   -0.8432   18.9048 H   0  0  0  0  0  0
  1  5  1  0  0  0
  1  6  1  0  0  0
  1 25  1  0  0  0
  2  3  1  0  0  0
  2 12  1  0  0  0
  2 26  1  0  0  0
  2 27  1  0  0  0
  3  4  1  0  0  0
  3 28  1  0  0  0
  3 29  1  0  0  0
  4  5  1  0  0  0
  4 10  1  0  0  0
  4 30  1  0  0  0
  5 11  2  0  0  0
  6 19  1  0  0  0
  6 24  2  0  0  0
  7 22  1  0  0  0
  7 23  2  0  0  0
  7 31  1  0  0  0
  8 20  1  0  0  0
  8 21  2  0  0  0
  8 32  1  0  0  0
  9 19  1  0  0  0
  9 20  2  0  0  0
  9 33  1  0  0  0
 10 13  1  0  0  0
 10 16  2  0  0  0
 12 13  1  0  0  0
 12 34  1  0  0  0
 13 14  2  0  0  0
 14 15  1  0  0  0
 14 35  1  0  0  0
 15 17  2  0  0  0
 15 36  1  0  0  0
 16 17  1  0  0  0
 16 37  1  0  0  0
 17 18  1  0  0  0
 19 22  2  0  0  0
 20 38  1  0  0  0
 21 22  1  0  0  0
 21 39  1  0  0  0
 23 24  1  0  0  0
 24 40  1  0  0  0
M  END
> <s_m_entry_id>
731

> <s_m_entry_name>
7ggq.pdb.1_ligand

> <s_pdb_PDB_TITLE>
GROUP DEPOSITION SARS-COV-2 MAIN PROTEASE IN COMPLEX WITH INHIBITORS FROM THE COVID MOONSHOT -- CRYSTAL STRUCTURE OF SARS-COV-2 MAIN PROTEASE IN COMPLEX WITH EDJ-MED-92E193AE-1 (MPRO-X12692)

> <s_pdb_PDB_ID>
7GGQ

> <s_m_Source_File>
7ggq.pdb.gz

> <s_user_Compound_ID>
EDJ-MED-92e193ae-1

> <s_user_Monomer-Dimer>
Monomer

> <s_user_xcode>
Mpro-x12692

$$$$
