7GGR_ligand
                    3D
 Schrodinger Suite 2021-2.
 40 43  0  0  1  0            999 V2000
    8.2692   -0.6314   20.4798 N   0  0  0  0  0  0
    7.4029   -2.6696   25.5696 C   0  0  0  0  0  0
    6.2542   -1.9646   25.8794 C   0  0  0  0  0  0
    6.0590   -0.7169   25.3271 C   0  0  0  0  0  0
    6.9753   -0.1489   24.4635 C   0  0  0  0  0  0
    8.1013   -0.8802   24.0950 C   0  0  0  0  0  0
    8.3354   -1.0920   19.1512 C   0  0  0  0  0  0
    9.0125   -2.8954   17.6333 C   0  0  0  0  0  0
   11.1980   -3.9103   17.7999 C   0  0  0  0  0  0
   10.5786   -2.2179   19.3734 C   0  0  0  0  0  0
    8.0565   -2.4634   21.7460 O   0  0  0  0  0  0
    8.4031   -1.2939   21.6433 C   0  0  0  0  0  0
    8.9518   -0.5019   22.8843 C   0  0  2  0  0  0
    4.6010    0.1572   25.7003 Cl  0  0  0  0  0  0
    8.3286   -2.1350   24.6746 C   0  0  0  0  0  0
    9.4490   -2.8804   24.2948 N   0  0  0  0  0  0
   10.4301   -2.4355   23.4814 C   0  0  0  0  0  0
   11.2570   -3.2036   22.9894 O   0  0  0  0  0  0
   10.3979   -0.9723   23.1218 C   0  0  0  0  0  0
    8.9826    0.9083   22.6908 O   0  0  0  0  0  0
    9.3042   -2.0764   18.7615 C   0  0  0  0  0  0
   11.4942   -3.1116   18.8930 C   0  0  0  0  0  0
    9.9869   -3.8174   17.1795 C   0  0  0  0  0  0
    7.7774   -2.6966   16.9762 C   0  0  0  0  0  0
    6.9016   -1.7635   17.3104 N   0  0  0  0  0  0
    7.2064   -0.9754   18.3478 C   0  0  0  0  0  0
    8.0958    0.3458   20.6675 H   0  0  0  0  0  0
    7.5828   -3.6341   26.0209 H   0  0  0  0  0  0
    5.5216   -2.3926   26.5476 H   0  0  0  0  0  0
    6.8130    0.8492   24.0841 H   0  0  0  0  0  0
   11.9292   -4.6147   17.4318 H   0  0  0  0  0  0
   10.8358   -1.6142   20.2312 H   0  0  0  0  0  0
    9.5664   -3.8243   24.6343 H   0  0  0  0  0  0
   10.8409   -0.3901   23.9298 H   0  0  0  0  0  0
   10.9861   -0.8073   22.2190 H   0  0  0  0  0  0
    9.5232    1.1149   21.9248 H   0  0  0  0  0  0
   12.4574   -3.1915   19.3749 H   0  0  0  0  0  0
    9.7744   -4.4555   16.3345 H   0  0  0  0  0  0
    7.4999   -3.3283   16.1454 H   0  0  0  0  0  0
    6.4847   -0.1954   18.5406 H   0  0  0  0  0  0
  1  7  1  0  0  0
  1 12  1  0  0  0
  1 27  1  0  0  0
  2  3  1  0  0  0
  2 15  2  0  0  0
  2 28  1  0  0  0
  3  4  2  0  0  0
  3 29  1  0  0  0
  4  5  1  0  0  0
  4 14  1  0  0  0
  5  6  2  0  0  0
  5 30  1  0  0  0
  6 13  1  0  0  0
  6 15  1  0  0  0
  7 21  1  0  0  0
  7 26  2  0  0  0
  8 21  1  0  0  0
  8 23  2  0  0  0
  8 24  1  0  0  0
  9 22  2  0  0  0
  9 23  1  0  0  0
  9 31  1  0  0  0
 10 21  2  0  0  0
 10 22  1  0  0  0
 10 32  1  0  0  0
 11 12  2  0  0  0
 12 13  1  0  0  0
 13 19  1  0  0  0
 13 20  1  0  0  0
 15 16  1  0  0  0
 16 17  1  0  0  0
 16 33  1  0  0  0
 17 18  2  0  0  0
 17 19  1  0  0  0
 19 34  1  0  0  0
 19 35  1  0  0  0
 20 36  1  0  0  0
 22 37  1  0  0  0
 23 38  1  0  0  0
 24 25  2  0  0  0
 24 39  1  0  0  0
 25 26  1  0  0  0
 26 40  1  0  0  0
M  END
> <s_m_entry_id>
733

> <s_m_entry_name>
7ggr.pdb.1_ligand

> <s_pdb_PDB_TITLE>
GROUP DEPOSITION SARS-COV-2 MAIN PROTEASE IN COMPLEX WITH INHIBITORS FROM THE COVID MOONSHOT -- CRYSTAL STRUCTURE OF SARS-COV-2 MAIN PROTEASE IN COMPLEX WITH MAT-POS-C7771779-1 (MPRO-X12695)

> <s_pdb_PDB_ID>
7GGR

> <s_m_Source_File>
7ggr.pdb.gz

> <s_user_Compound_ID>
MAT-POS-c7771779-1

> <s_user_Monomer-Dimer>
Monomer

> <s_user_xcode>
Mpro-x12695

$$$$
