7GGS_ligand
                    3D
 Schrodinger Suite 2021-2.
 40 43  0  0  1  0            999 V2000
   10.4097   -3.2451   17.2444 N   0  0  0  0  0  0
    8.5310   -1.0583   20.9496 N   0  0  0  0  0  0
    7.1239   -1.6031   19.0413 C   0  0  0  0  0  0
    8.3748   -1.6037   19.6535 C   0  0  0  0  0  0
    8.0388   -1.5625   22.1024 C   0  0  0  0  0  0
    8.5169   -0.8326   23.3610 C   0  0  2  0  0  0
    9.8948   -1.4091   23.8076 C   0  0  0  0  0  0
    7.5671   -1.8705   25.4380 C   0  0  0  0  0  0
    5.1961   -0.5316   25.1738 C   0  0  0  0  0  0
    7.4120   -0.9713   24.3853 C   0  0  0  0  0  0
    3.7091    0.3515   25.0266 Cl  0  0  0  0  0  0
    5.3440   -1.4403   26.2009 C   0  0  0  0  0  0
    6.5445   -2.1112   26.3424 C   0  0  0  0  0  0
    6.2060   -0.2867   24.2701 C   0  0  0  0  0  0
    8.7337   -2.5606   25.6383 O   0  0  0  0  0  0
    9.9003   -1.8136   25.2645 C   0  0  0  0  0  0
    7.2952   -2.5401   22.1525 O   0  0  0  0  0  0
    6.8792   -2.1726   17.8571 N   0  0  0  0  0  0
    7.9036   -2.7505   17.2202 C   0  0  0  0  0  0
    9.4381   -2.2081   18.9726 C   0  0  0  0  0  0
   10.8138   -2.3371   19.2091 N   0  0  0  0  0  0
   11.5578   -1.9169   20.3959 C   0  0  0  0  0  0
    9.1961   -2.7829   17.7361 C   0  0  0  0  0  0
   11.4107   -2.9736   18.1335 C   0  0  0  0  0  0
   12.6022   -3.2179   18.0146 O   0  0  0  0  0  0
   10.4484   -3.7050   16.3460 H   0  0  0  0  0  0
    9.0562   -0.2053   21.0787 H   0  0  0  0  0  0
    6.2859   -1.1241   19.5258 H   0  0  0  0  0  0
    8.6417    0.2241   23.1245 H   0  0  0  0  0  0
   10.6723   -0.6649   23.6352 H   0  0  0  0  0  0
   10.1436   -2.2727   23.1907 H   0  0  0  0  0  0
    4.5270   -1.6211   26.8837 H   0  0  0  0  0  0
    6.6902   -2.8167   27.1470 H   0  0  0  0  0  0
    6.0592    0.4329   23.4783 H   0  0  0  0  0  0
    9.9747   -0.9224   25.8876 H   0  0  0  0  0  0
   10.7915   -2.4057   25.4727 H   0  0  0  0  0  0
    7.7470   -3.2203   16.2604 H   0  0  0  0  0  0
   12.6129   -2.1588   20.2683 H   0  0  0  0  0  0
   11.4461   -0.8414   20.5334 H   0  0  0  0  0  0
   11.1696   -2.4370   21.2716 H   0  0  0  0  0  0
  1 23  1  0  0  0
  1 24  1  0  0  0
  1 26  1  0  0  0
  2  4  1  0  0  0
  2  5  1  0  0  0
  2 27  1  0  0  0
  3  4  2  0  0  0
  3 18  1  0  0  0
  3 28  1  0  0  0
  4 20  1  0  0  0
  5  6  1  0  0  0
  5 17  2  0  0  0
  6  7  1  0  0  0
  6 10  1  0  0  0
  6 29  1  0  0  0
  7 16  1  0  0  0
  7 30  1  0  0  0
  7 31  1  0  0  0
  8 10  1  0  0  0
  8 13  2  0  0  0
  8 15  1  0  0  0
  9 11  1  0  0  0
  9 12  2  0  0  0
  9 14  1  0  0  0
 10 14  2  0  0  0
 12 13  1  0  0  0
 12 32  1  0  0  0
 13 33  1  0  0  0
 14 34  1  0  0  0
 15 16  1  0  0  0
 16 35  1  0  0  0
 16 36  1  0  0  0
 18 19  2  0  0  0
 19 23  1  0  0  0
 19 37  1  0  0  0
 20 21  1  0  0  0
 20 23  2  0  0  0
 21 22  1  0  0  0
 21 24  1  0  0  0
 22 38  1  0  0  0
 22 39  1  0  0  0
 22 40  1  0  0  0
 24 25  2  0  0  0
M  END
> <s_m_entry_id>
735

> <s_m_entry_name>
7ggs.pdb.1_ligand

> <s_pdb_PDB_TITLE>
GROUP DEPOSITION SARS-COV-2 MAIN PROTEASE IN COMPLEX WITH INHIBITORS FROM THE COVID MOONSHOT -- CRYSTAL STRUCTURE OF SARS-COV-2 MAIN PROTEASE IN COMPLEX WITH EDG-MED-0E5AFE9D-1 (MPRO-X12696)

> <s_pdb_PDB_ID>
7GGS

> <s_m_Source_File>
7ggs.pdb.gz

> <s_user_Compound_ID>
EDG-MED-0e5afe9d-1

> <s_user_Monomer-Dimer>
Monomer

> <s_user_xcode>
Mpro-x12696

$$$$
