7GGT_ligand
                    3D
 Schrodinger Suite 2021-2.
 43 46  0  0  1  0            999 V2000
    7.0723   -1.9323   17.8293 N   0  0  0  0  0  0
    9.5088   -2.8743   24.7759 C   0  0  0  0  0  0
    9.8212   -1.6717   23.9239 C   0  0  0  0  0  0
    8.5221   -0.9884   23.4765 C   0  0  1  0  0  0
    7.9715   -1.7355   22.2604 C   0  0  0  0  0  0
    8.4738   -1.6497   19.7610 C   0  0  0  0  0  0
    8.0340   -2.6764   17.2806 C   0  0  0  0  0  0
   11.6277   -3.6747   17.8628 C   0  0  0  0  0  0
    9.4550   -2.4712   19.1854 C   0  0  0  0  0  0
    6.2374   -0.3352   24.3837 C   0  0  0  0  0  0
    7.2429   -2.7207   22.3649 O   0  0  0  0  0  0
    8.7660   -2.4934   25.9509 O   0  0  0  0  0  0
    7.4425   -1.0211   24.5419 C   0  0  0  0  0  0
    7.6084   -1.8070   25.6842 C   0  0  0  0  0  0
    6.5967   -1.9437   26.6213 C   0  0  0  0  0  0
    5.3928   -1.2931   26.4238 C   0  0  0  0  0  0
    5.2368   -0.4861   25.3210 C   0  0  0  0  0  0
    3.7423    0.3820   25.1071 Cl  0  0  0  0  0  0
    8.3115   -1.2118   21.0804 N   0  0  0  0  0  0
   10.7269   -2.7730   19.9367 C   0  0  0  0  0  0
   11.5255   -3.8380   19.3227 N   0  3  0  0  0  0
   10.2773   -3.8173   17.1990 C   0  0  0  0  0  0
    9.2349   -2.9739   17.8942 C   0  0  0  0  0  0
    7.3066   -1.4204   19.0364 C   0  0  0  0  0  0
   10.4384   -3.3583   25.0753 H   0  0  0  0  0  0
    8.9268   -3.5896   24.1947 H   0  0  0  0  0  0
   10.3871   -1.9855   23.0467 H   0  0  0  0  0  0
   10.4233   -0.9670   24.4974 H   0  0  0  0  0  0
    8.7313    0.0459   23.2032 H   0  0  0  0  0  0
    7.8990   -3.0901   16.2921 H   0  0  0  0  0  0
   12.3105   -4.4234   17.4609 H   0  0  0  0  0  0
   12.0417   -2.6923   17.6357 H   0  0  0  0  0  0
    6.0915    0.3103   23.5302 H   0  0  0  0  0  0
    6.7517   -2.5550   27.4981 H   0  0  0  0  0  0
    4.5872   -1.4213   27.1316 H   0  0  0  0  0  0
    8.5345   -0.2293   21.0093 H   0  0  0  0  0  0
   10.4843   -3.0485   20.9630 H   0  0  0  0  0  0
   11.3278   -1.8664   20.0097 H   0  0  0  0  0  0
   12.4514   -3.8390   19.7263 H   0  0  0  0  0  0
   11.1087   -4.7338   19.5322 H   0  0  0  0  0  0
    9.9712   -4.8632   17.2203 H   0  0  0  0  0  0
   10.3524   -3.5136   16.1548 H   0  0  0  0  0  0
    6.5688   -0.7875   19.5070 H   0  0  0  0  0  0
  1  7  1  0  0  0
  1 24  2  0  0  0
  2  3  1  0  0  0
  2 12  1  0  0  0
  2 25  1  0  0  0
  2 26  1  0  0  0
  3  4  1  0  0  0
  3 27  1  0  0  0
  3 28  1  0  0  0
  4  5  1  0  0  0
  4 13  1  0  0  0
  4 29  1  0  0  0
  5 11  2  0  0  0
  5 19  1  0  0  0
  6  9  2  0  0  0
  6 19  1  0  0  0
  6 24  1  0  0  0
  7 23  2  0  0  0
  7 30  1  0  0  0
  8 21  1  0  0  0
  8 22  1  0  0  0
  8 31  1  0  0  0
  8 32  1  0  0  0
  9 20  1  0  0  0
  9 23  1  0  0  0
 10 13  1  0  0  0
 10 17  2  0  0  0
 10 33  1  0  0  0
 12 14  1  0  0  0
 13 14  2  0  0  0
 14 15  1  0  0  0
 15 16  2  0  0  0
 15 34  1  0  0  0
 16 17  1  0  0  0
 16 35  1  0  0  0
 17 18  1  0  0  0
 19 36  1  0  0  0
 20 21  1  0  0  0
 20 37  1  0  0  0
 20 38  1  0  0  0
 21 39  1  0  0  0
 21 40  1  0  0  0
 22 23  1  0  0  0
 22 41  1  0  0  0
 22 42  1  0  0  0
 24 43  1  0  0  0
M  CHG  1  21   1
M  END
> <s_m_entry_id>
737

> <s_m_entry_name>
7ggt.pdb.1_ligand

> <s_pdb_PDB_TITLE>
GROUP DEPOSITION SARS-COV-2 MAIN PROTEASE IN COMPLEX WITH INHIBITORS FROM THE COVID MOONSHOT -- CRYSTAL STRUCTURE OF SARS-COV-2 MAIN PROTEASE IN COMPLEX WITH BEN-DND-C852C98B-10 (MPRO-X12698)

> <s_pdb_PDB_ID>
7GGT

> <s_m_Source_File>
7ggt.pdb.gz

> <s_user_Compound_ID>
BEN-DND-c852c98b-10

> <s_user_Monomer-Dimer>
Monomer

> <s_user_xcode>
Mpro-x12698

$$$$
