7GGU_ligand
                    3D
 Schrodinger Suite 2021-2.
 43 46  0  0  1  0            999 V2000
    6.7810   -2.0470   17.5258 N   0  0  0  0  0  0
    7.3609   -1.9954   25.5701 C   0  0  0  0  0  0
    6.3779   -2.1698   26.5287 C   0  0  0  0  0  0
    5.1525   -1.5524   26.3636 C   0  0  0  0  0  0
    4.9317   -0.7838   25.2420 C   0  0  0  0  0  0
    5.8811   -0.6547   24.2466 C   0  0  0  0  0  0
    7.7680   -1.8186   22.0395 C   0  0  0  0  0  0
    7.8893   -2.6236   17.0753 C   0  0  0  0  0  0
   10.2496   -3.3773   17.3321 C   0  0  0  0  0  0
   11.4034   -2.8932   19.3710 C   0  0  0  0  0  0
    7.3685   -2.9760   22.0081 O   0  0  0  0  0  0
    8.2054   -1.1156   23.3581 C   0  0  1  0  0  0
    7.1287   -1.2493   24.4130 C   0  0  0  0  0  0
    3.4640    0.1463   25.1287 Cl  0  0  0  0  0  0
    8.5744   -2.5736   25.8501 O   0  0  0  0  0  0
    9.3432   -2.9244   24.6894 C   0  0  0  0  0  0
    9.5493   -1.7278   23.7861 C   0  0  0  0  0  0
    8.5405    0.2201   22.9459 O   0  0  0  0  0  0
    8.3742    1.2689   23.9037 C   0  0  0  0  0  0
    7.9006   -1.0689   20.9269 N   0  0  0  0  0  0
    7.9145   -1.5320   19.5994 C   0  0  0  0  0  0
    9.1147   -2.1383   19.1124 C   0  0  0  0  0  0
   10.3093   -2.2469   19.8719 C   0  0  0  0  0  0
   11.3731   -3.4589   18.1036 C   0  0  0  0  0  0
    9.0936   -2.7117   17.8108 C   0  0  0  0  0  0
    6.8090   -1.5179   18.7563 C   0  0  0  0  0  0
    6.5720   -2.7837   27.3957 H   0  0  0  0  0  0
    4.3811   -1.6753   27.1094 H   0  0  0  0  0  0
    5.6518   -0.0968   23.3508 H   0  0  0  0  0  0
    7.9067   -3.0631   16.0889 H   0  0  0  0  0  0
   10.2368   -3.8222   16.3481 H   0  0  0  0  0  0
   12.3040   -2.9681   19.9624 H   0  0  0  0  0  0
    8.8287   -3.7112   24.1377 H   0  0  0  0  0  0
   10.3120   -3.3154   25.0004 H   0  0  0  0  0  0
   10.1404   -0.9759   24.3090 H   0  0  0  0  0  0
   10.1072   -2.0332   22.9009 H   0  0  0  0  0  0
    8.6643    2.2196   23.4563 H   0  0  0  0  0  0
    7.3300    1.3170   24.2129 H   0  0  0  0  0  0
    9.0012    1.0706   24.7729 H   0  0  0  0  0  0
    8.0036   -0.0670   21.0024 H   0  0  0  0  0  0
   10.3452   -1.8096   20.8588 H   0  0  0  0  0  0
   12.2495   -3.9671   17.7293 H   0  0  0  0  0  0
    5.9291   -1.0372   19.1575 H   0  0  0  0  0  0
  1  8  2  0  0  0
  1 26  1  0  0  0
  2  3  1  0  0  0
  2 13  2  0  0  0
  2 15  1  0  0  0
  3  4  2  0  0  0
  3 27  1  0  0  0
  4  5  1  0  0  0
  4 28  1  0  0  0
  5  6  2  0  0  0
  5 14  1  0  0  0
  6 13  1  0  0  0
  6 29  1  0  0  0
  7 11  2  0  0  0
  7 12  1  0  0  0
  7 20  1  0  0  0
  8 25  1  0  0  0
  8 30  1  0  0  0
  9 24  1  0  0  0
  9 25  2  0  0  0
  9 31  1  0  0  0
 10 23  1  0  0  0
 10 24  2  0  0  0
 10 32  1  0  0  0
 12 13  1  0  0  0
 12 17  1  0  0  0
 12 18  1  0  0  0
 15 16  1  0  0  0
 16 17  1  0  0  0
 16 33  1  0  0  0
 16 34  1  0  0  0
 17 35  1  0  0  0
 17 36  1  0  0  0
 18 19  1  0  0  0
 19 37  1  0  0  0
 19 38  1  0  0  0
 19 39  1  0  0  0
 20 21  1  0  0  0
 20 40  1  0  0  0
 21 22  1  0  0  0
 21 26  2  0  0  0
 22 23  2  0  0  0
 22 25  1  0  0  0
 23 41  1  0  0  0
 24 42  1  0  0  0
 26 43  1  0  0  0
M  END
> <s_m_entry_id>
739

> <s_m_entry_name>
7ggu.pdb.1_ligand

> <s_pdb_PDB_TITLE>
GROUP DEPOSITION SARS-COV-2 MAIN PROTEASE IN COMPLEX WITH INHIBITORS FROM THE COVID MOONSHOT -- CRYSTAL STRUCTURE OF SARS-COV-2 MAIN PROTEASE IN COMPLEX WITH EDG-MED-0E5AFE9D-3 (MPRO-X12699)

> <s_pdb_PDB_ID>
7GGU

> <s_m_Source_File>
7ggu.pdb.gz

> <s_user_Compound_ID>
EDG-MED-0e5afe9d-3

> <s_user_Monomer-Dimer>
Monomer

> <s_user_xcode>
Mpro-x12699

$$$$
