7GGV_ligand
                    3D
 Schrodinger Suite 2021-2.
 43 46  0  0  1  0            999 V2000
    8.4114   -0.5549   20.4045 N   0  0  0  0  0  0
    8.0480   -0.9396   21.6444 C   0  0  0  0  0  0
    8.2909   -1.2946   19.2193 C   0  0  0  0  0  0
    7.1265   -1.3564   18.4549 C   0  0  0  0  0  0
    7.9941   -2.8830   16.9976 C   0  0  0  0  0  0
    9.2421   -2.9196   17.6643 C   0  0  0  0  0  0
   11.5176   -3.6918   17.9077 C   0  0  0  0  0  0
    9.3976   -2.1012   18.8151 C   0  0  0  0  0  0
    6.3665    0.0561   24.0894 C   0  0  0  0  0  0
    6.0470   -1.3009   26.0452 C   0  0  0  0  0  0
    3.9707    0.2444   25.2941 Cl  0  0  0  0  0  0
    5.5837   -0.3852   25.1309 C   0  0  0  0  0  0
    7.3440   -1.7730   25.9328 C   0  0  0  0  0  0
    8.1554   -1.3483   24.8818 C   0  0  0  0  0  0
    9.4684   -1.8012   24.7401 N   0  0  0  0  0  0
   10.0364   -2.7234   25.7204 C   0  0  0  0  0  0
    7.6608   -0.4315   23.9432 C   0  0  0  0  0  0
    8.4877    0.0122   22.7560 C   0  0  1  0  0  0
    9.9993   -0.0700   23.0652 C   0  0  0  0  0  0
   10.3661   -1.4329   23.6468 C   0  0  0  0  0  0
    7.4222   -1.9749   21.8759 O   0  0  0  0  0  0
   10.6454   -2.1246   19.4901 C   0  0  0  0  0  0
   11.6732   -2.9009   19.0357 C   0  0  0  0  0  0
   10.3320   -3.7165   17.2335 C   0  0  0  0  0  0
    6.9674   -2.1264   17.3731 N   0  0  0  0  0  0
    8.8203    0.3569   20.2582 H   0  0  0  0  0  0
    6.2712   -0.7545   18.7242 H   0  0  0  0  0  0
    7.8304   -3.4965   16.1239 H   0  0  0  0  0  0
   12.3398   -4.2966   17.5546 H   0  0  0  0  0  0
    5.9755    0.7789   23.3887 H   0  0  0  0  0  0
    5.4015   -1.6444   26.8400 H   0  0  0  0  0  0
    7.7293   -2.4719   26.6604 H   0  0  0  0  0  0
   11.0634   -2.9617   25.4434 H   0  0  0  0  0  0
   10.0250   -2.2588   26.7063 H   0  0  0  0  0  0
    9.4452   -3.6389   25.7438 H   0  0  0  0  0  0
    8.2238    1.0352   22.4878 H   0  0  0  0  0  0
   10.2674    0.7119   23.7758 H   0  0  0  0  0  0
   10.5666    0.0985   22.1498 H   0  0  0  0  0  0
   10.3121   -2.1883   22.8629 H   0  0  0  0  0  0
   11.3924   -1.4068   24.0131 H   0  0  0  0  0  0
   10.7919   -1.5235   20.3753 H   0  0  0  0  0  0
   12.6146   -2.8942   19.5649 H   0  0  0  0  0  0
   10.2277   -4.3499   16.3650 H   0  0  0  0  0  0
  1  2  1  0  0  0
  1  3  1  0  0  0
  1 26  1  0  0  0
  2 18  1  0  0  0
  2 21  2  0  0  0
  3  4  2  0  0  0
  3  8  1  0  0  0
  4 25  1  0  0  0
  4 27  1  0  0  0
  5  6  1  0  0  0
  5 25  2  0  0  0
  5 28  1  0  0  0
  6  8  1  0  0  0
  6 24  2  0  0  0
  7 23  2  0  0  0
  7 24  1  0  0  0
  7 29  1  0  0  0
  8 22  2  0  0  0
  9 12  1  0  0  0
  9 17  2  0  0  0
  9 30  1  0  0  0
 10 12  2  0  0  0
 10 13  1  0  0  0
 10 31  1  0  0  0
 11 12  1  0  0  0
 13 14  2  0  0  0
 13 32  1  0  0  0
 14 15  1  0  0  0
 14 17  1  0  0  0
 15 16  1  0  0  0
 15 20  1  0  0  0
 16 33  1  0  0  0
 16 34  1  0  0  0
 16 35  1  0  0  0
 17 18  1  0  0  0
 18 19  1  0  0  0
 18 36  1  0  0  0
 19 20  1  0  0  0
 19 37  1  0  0  0
 19 38  1  0  0  0
 20 39  1  0  0  0
 20 40  1  0  0  0
 22 23  1  0  0  0
 22 41  1  0  0  0
 23 42  1  0  0  0
 24 43  1  0  0  0
M  END
> <s_m_entry_id>
741

> <s_m_entry_name>
7ggv.pdb.1_ligand

> <s_pdb_PDB_TITLE>
GROUP DEPOSITION SARS-COV-2 MAIN PROTEASE IN COMPLEX WITH INHIBITORS FROM THE COVID MOONSHOT -- CRYSTAL STRUCTURE OF SARS-COV-2 MAIN PROTEASE IN COMPLEX WITH MIC-UNK-91ACBA05-6 (MPRO-X12710)

> <s_pdb_PDB_ID>
7GGV

> <s_m_Source_File>
7ggv.pdb.gz

> <s_user_Compound_ID>
MIC-UNK-91acba05-6

> <s_user_Monomer-Dimer>
Monomer

> <s_user_xcode>
Mpro-x12710

$$$$
