7GGW_ligand
                    3D
 Schrodinger Suite 2021-2.
 39 42  0  0  1  0            999 V2000
   10.1962   -3.5919   17.2126 N   0  0  0  0  0  0
    8.4716   -1.1213   20.8827 N   0  0  0  0  0  0
    7.0925   -1.5015   18.9012 C   0  0  0  0  0  0
    8.2933   -1.6745   19.5857 C   0  0  0  0  0  0
    7.9913   -1.6654   22.0243 C   0  0  0  0  0  0
    8.5218   -1.0293   23.3109 C   0  0  2  0  0  0
    9.8304   -1.7745   23.7273 C   0  0  0  0  0  0
    7.5452   -1.9283   25.4534 C   0  0  0  0  0  0
    5.2359   -0.4930   25.1482 C   0  0  0  0  0  0
    7.4093   -1.0988   24.3389 C   0  0  0  0  0  0
    3.7750    0.4307   24.9579 Cl  0  0  0  0  0  0
    5.3688   -1.3231   26.2385 C   0  0  0  0  0  0
    6.5392   -2.0402   26.4012 C   0  0  0  0  0  0
    6.2320   -0.3680   24.2025 C   0  0  0  0  0  0
    8.6661   -2.6886   25.6689 O   0  0  0  0  0  0
    9.8683   -2.0627   25.2088 C   0  0  0  0  0  0
    7.2312   -2.6281   22.0378 O   0  0  0  0  0  0
    6.8485   -2.0097   17.6908 N   0  0  0  0  0  0
    7.8265   -2.7007   17.0976 C   0  0  0  0  0  0
    9.3102   -2.4187   18.9675 C   0  0  0  0  0  0
   10.5910   -2.8484   19.2914 N   0  0  0  0  0  0
   11.3222   -2.6465   20.5355 C   0  0  0  0  0  0
    9.0720   -2.9168   17.6779 C   0  0  0  0  0  0
   11.0471   -3.5227   18.2030 C   0  0  0  0  0  0
    8.9885   -0.2614   20.9983 H   0  0  0  0  0  0
    6.2937   -0.9286   19.3485 H   0  0  0  0  0  0
    8.7579    0.0168   23.1163 H   0  0  0  0  0  0
   10.6949   -1.1697   23.4534 H   0  0  0  0  0  0
    9.9065   -2.7104   23.1738 H   0  0  0  0  0  0
    4.5641   -1.4078   26.9539 H   0  0  0  0  0  0
    6.6736   -2.6838   27.2580 H   0  0  0  0  0  0
    6.0971    0.2947   23.3605 H   0  0  0  0  0  0
   10.0247   -1.1325   25.7551 H   0  0  0  0  0  0
   10.7198   -2.7057   25.4313 H   0  0  0  0  0  0
    7.6698   -3.1248   16.1168 H   0  0  0  0  0  0
   12.3045   -3.1128   20.4600 H   0  0  0  0  0  0
   11.4407   -1.5785   20.7187 H   0  0  0  0  0  0
   10.7691   -3.0968   21.3598 H   0  0  0  0  0  0
   12.0206   -3.9814   18.1116 H   0  0  0  0  0  0
  1 23  1  0  0  0
  1 24  2  0  0  0
  2  4  1  0  0  0
  2  5  1  0  0  0
  2 25  1  0  0  0
  3  4  2  0  0  0
  3 18  1  0  0  0
  3 26  1  0  0  0
  4 20  1  0  0  0
  5  6  1  0  0  0
  5 17  2  0  0  0
  6  7  1  0  0  0
  6 10  1  0  0  0
  6 27  1  0  0  0
  7 16  1  0  0  0
  7 28  1  0  0  0
  7 29  1  0  0  0
  8 10  1  0  0  0
  8 13  2  0  0  0
  8 15  1  0  0  0
  9 11  1  0  0  0
  9 12  2  0  0  0
  9 14  1  0  0  0
 10 14  2  0  0  0
 12 13  1  0  0  0
 12 30  1  0  0  0
 13 31  1  0  0  0
 14 32  1  0  0  0
 15 16  1  0  0  0
 16 33  1  0  0  0
 16 34  1  0  0  0
 18 19  2  0  0  0
 19 23  1  0  0  0
 19 35  1  0  0  0
 20 21  1  0  0  0
 20 23  2  0  0  0
 21 22  1  0  0  0
 21 24  1  0  0  0
 22 36  1  0  0  0
 22 37  1  0  0  0
 22 38  1  0  0  0
 24 39  1  0  0  0
M  END
> <s_m_entry_id>
743

> <s_m_entry_name>
7ggw.pdb.1_ligand

> <s_pdb_PDB_TITLE>
GROUP DEPOSITION SARS-COV-2 MAIN PROTEASE IN COMPLEX WITH INHIBITORS FROM THE COVID MOONSHOT -- CRYSTAL STRUCTURE OF SARS-COV-2 MAIN PROTEASE IN COMPLEX WITH MAT-POS-2BB0CF2B-2 (MPRO-X12715)

> <s_pdb_PDB_ID>
7GGW

> <s_m_Source_File>
7ggw.pdb.gz

> <s_user_Compound_ID>
MAT-POS-2bb0cf2b-2

> <s_user_Monomer-Dimer>
Monomer

> <s_user_xcode>
Mpro-x12715

$$$$
