7GGX_ligand
                    3D
 Schrodinger Suite 2021-2.
 45 48  0  0  1  0            999 V2000
    8.6640   -1.6098   21.1149 N   0  0  0  0  0  0
    7.4493   -1.9342   25.3661 C   0  0  0  0  0  0
    6.4214   -2.2881   26.2228 C   0  0  0  0  0  0
    5.2079   -1.6289   26.1301 C   0  0  0  0  0  0
    5.0467   -0.6400   25.1805 C   0  0  0  0  0  0
    6.0521   -0.2990   24.3053 C   0  0  0  0  0  0
    7.8261   -1.4482   22.1390 C   0  0  0  0  0  0
    7.9696   -2.6159   17.1544 C   0  0  0  0  0  0
   10.3150   -3.4584   16.9823 C   0  0  0  0  0  0
   11.8079   -3.1192   18.8165 C   0  0  0  0  0  0
    6.7837   -2.0862   22.1978 O   0  0  0  0  0  0
    8.3448   -0.6565   23.3487 C   0  0  1  0  0  0
    7.2769   -0.9517   24.3863 C   0  0  0  0  0  0
    3.5532    0.2458   25.1193 Cl  0  0  0  0  0  0
    8.6534   -2.5589   25.5922 O   0  0  0  0  0  0
    9.5534   -2.5872   24.4669 C   0  0  0  0  0  0
    9.7050   -1.2249   23.8227 C   0  0  0  0  0  0
    8.4762    0.8613   23.1105 C   0  0  0  0  0  0
    9.5223    1.1951   22.1448 N   0  3  0  0  0  0
    8.4158   -1.8655   19.7577 C   0  0  0  0  0  0
    9.5220   -2.3383   18.9999 C   0  0  0  0  0  0
   10.8234   -2.5106   19.5391 C   0  0  0  0  0  0
   11.5495   -3.6063   17.5466 C   0  0  0  0  0  0
    9.2774   -2.7926   17.6784 C   0  0  0  0  0  0
    6.9584   -2.0738   17.8315 N   0  0  0  0  0  0
    7.1850   -1.7312   19.1067 C   0  0  0  0  0  0
    9.6612   -1.5520   21.2644 H   0  0  0  0  0  0
    6.5716   -3.0703   26.9522 H   0  0  0  0  0  0
    4.3993   -1.8899   26.7967 H   0  0  0  0  0  0
    5.8857    0.4690   23.5644 H   0  0  0  0  0  0
    7.7451   -2.9297   16.1457 H   0  0  0  0  0  0
   10.1219   -3.8512   15.9950 H   0  0  0  0  0  0
   12.7982   -3.2240   19.2343 H   0  0  0  0  0  0
    9.1870   -3.2992   23.7274 H   0  0  0  0  0  0
   10.5302   -2.9447   24.7929 H   0  0  0  0  0  0
   10.1579   -0.5353   24.5350 H   0  0  0  0  0  0
   10.3830   -1.2994   22.9724 H   0  0  0  0  0  0
    8.6848    1.3597   24.0572 H   0  0  0  0  0  0
    7.5221    1.2572   22.7624 H   0  0  0  0  0  0
    9.5651    2.1973   22.0270 H   0  0  0  0  0  0
   10.4126    0.8579   22.4821 H   0  0  0  0  0  0
    9.3128    0.7609   21.2573 H   0  0  0  0  0  0
   11.0291   -2.1519   20.5368 H   0  0  0  0  0  0
   12.3358   -4.1075   17.0016 H   0  0  0  0  0  0
    6.3352   -1.3270   19.6366 H   0  0  0  0  0  0
  1  7  1  0  0  0
  1 20  1  0  0  0
  1 27  1  0  0  0
  2  3  1  0  0  0
  2 13  2  0  0  0
  2 15  1  0  0  0
  3  4  2  0  0  0
  3 28  1  0  0  0
  4  5  1  0  0  0
  4 29  1  0  0  0
  5  6  2  0  0  0
  5 14  1  0  0  0
  6 13  1  0  0  0
  6 30  1  0  0  0
  7 11  2  0  0  0
  7 12  1  0  0  0
  8 24  1  0  0  0
  8 25  2  0  0  0
  8 31  1  0  0  0
  9 23  1  0  0  0
  9 24  2  0  0  0
  9 32  1  0  0  0
 10 22  1  0  0  0
 10 23  2  0  0  0
 10 33  1  0  0  0
 12 13  1  0  0  0
 12 17  1  0  0  0
 12 18  1  0  0  0
 15 16  1  0  0  0
 16 17  1  0  0  0
 16 34  1  0  0  0
 16 35  1  0  0  0
 17 36  1  0  0  0
 17 37  1  0  0  0
 18 19  1  0  0  0
 18 38  1  0  0  0
 18 39  1  0  0  0
 19 40  1  0  0  0
 19 41  1  0  0  0
 19 42  1  0  0  0
 20 21  1  0  0  0
 20 26  2  0  0  0
 21 22  2  0  0  0
 21 24  1  0  0  0
 22 43  1  0  0  0
 23 44  1  0  0  0
 25 26  1  0  0  0
 26 45  1  0  0  0
M  CHG  1  19   1
M  END
> <s_m_entry_id>
745

> <s_m_entry_name>
7ggx.pdb.1_ligand

> <s_pdb_PDB_TITLE>
GROUP DEPOSITION SARS-COV-2 MAIN PROTEASE IN COMPLEX WITH INHIBITORS FROM THE COVID MOONSHOT -- CRYSTAL STRUCTURE OF SARS-COV-2 MAIN PROTEASE IN COMPLEX WITH EDG-MED-971238D3-5 (MPRO-X12716)

> <s_pdb_PDB_ID>
7GGX

> <s_m_Source_File>
7ggx.pdb.gz

> <s_user_Compound_ID>
EDG-MED-971238d3-5

> <s_user_Monomer-Dimer>
Monomer

> <s_user_xcode>
Mpro-x12716

$$$$
