7GGY_ligand
                    3D
 Schrodinger Suite 2021-2.
 45 48  0  0  1  0            999 V2000
    8.2242   -0.8436   20.5203 N   0  0  0  0  0  0
    8.2863   -0.3888   22.8950 C   0  0  1  0  0  0
    7.9689   -1.3439   21.7450 C   0  0  0  0  0  0
    8.1348   -1.5019   19.2785 C   0  0  0  0  0  0
    6.9974   -1.4968   18.4758 C   0  0  0  0  0  0
    7.9427   -2.8107   16.8689 C   0  0  0  0  0  0
   10.2723   -3.6639   17.1020 C   0  0  0  0  0  0
   10.4882   -2.3382   19.5317 C   0  0  0  0  0  0
    7.3547   -0.7486   24.0342 C   0  0  0  0  0  0
    5.2660   -0.5317   25.1778 C   0  0  0  0  0  0
    7.6974   -1.7876   24.9076 C   0  0  0  0  0  0
    3.7269    0.2655   25.3433 Cl  0  0  0  0  0  0
    6.1364   -0.0968   24.2029 C   0  0  0  0  0  0
    5.5732   -1.5928   26.0076 C   0  0  0  0  0  0
    6.8036   -2.2173   25.8841 C   0  0  0  0  0  0
    9.0115   -2.2916   24.8255 N   0  0  0  0  0  0
    9.3656   -3.6081   24.8917 C   0  0  0  0  0  0
   10.4251   -3.9321   25.3905 O   0  0  0  0  0  0
    8.4558   -4.6201   24.2688 C   0  0  0  0  0  0
    9.7854   -0.5166   23.2718 C   0  0  0  0  0  0
   10.0123   -1.2403   24.5981 C   0  0  0  0  0  0
    7.5462   -2.4798   21.9333 O   0  0  0  0  0  0
    9.2695   -2.2374   18.8156 C   0  0  0  0  0  0
   11.5353   -3.0620   19.0366 C   0  0  0  0  0  0
   11.4284   -3.7219   17.8242 C   0  0  0  0  0  0
    9.1652   -2.9156   17.5716 C   0  0  0  0  0  0
    6.8909   -2.1234   17.2978 N   0  0  0  0  0  0
    8.5199    0.1168   20.4187 H   0  0  0  0  0  0
    8.0835    0.6338   22.5768 H   0  0  0  0  0  0
    6.1157   -0.9593   18.7921 H   0  0  0  0  0  0
    7.8217   -3.3092   15.9185 H   0  0  0  0  0  0
   10.1953   -4.1916   16.1628 H   0  0  0  0  0  0
   10.5986   -1.8385   20.4828 H   0  0  0  0  0  0
    5.8809    0.7420   23.5724 H   0  0  0  0  0  0
    4.8573   -1.9277   26.7436 H   0  0  0  0  0  0
    7.0710   -3.0328   26.5397 H   0  0  0  0  0  0
    8.8739   -5.6175   24.4044 H   0  0  0  0  0  0
    7.4760   -4.5697   24.7438 H   0  0  0  0  0  0
    8.3539   -4.4110   23.2039 H   0  0  0  0  0  0
   10.2324    0.4764   23.3201 H   0  0  0  0  0  0
   10.3147   -1.0427   22.4773 H   0  0  0  0  0  0
   11.0092   -1.6810   24.6049 H   0  0  0  0  0  0
    9.9737   -0.5200   25.4154 H   0  0  0  0  0  0
   12.4594   -3.1242   19.5922 H   0  0  0  0  0  0
   12.2704   -4.2862   17.4513 H   0  0  0  0  0  0
  1  3  1  0  0  0
  1  4  1  0  0  0
  1 28  1  0  0  0
  2  3  1  0  0  0
  2  9  1  0  0  0
  2 20  1  0  0  0
  2 29  1  0  0  0
  3 22  2  0  0  0
  4  5  2  0  0  0
  4 23  1  0  0  0
  5 27  1  0  0  0
  5 30  1  0  0  0
  6 26  1  0  0  0
  6 27  2  0  0  0
  6 31  1  0  0  0
  7 25  1  0  0  0
  7 26  2  0  0  0
  7 32  1  0  0  0
  8 23  2  0  0  0
  8 24  1  0  0  0
  8 33  1  0  0  0
  9 11  1  0  0  0
  9 13  2  0  0  0
 10 12  1  0  0  0
 10 13  1  0  0  0
 10 14  2  0  0  0
 11 15  2  0  0  0
 11 16  1  0  0  0
 13 34  1  0  0  0
 14 15  1  0  0  0
 14 35  1  0  0  0
 15 36  1  0  0  0
 16 17  1  0  0  0
 16 21  1  0  0  0
 17 18  2  0  0  0
 17 19  1  0  0  0
 19 37  1  0  0  0
 19 38  1  0  0  0
 19 39  1  0  0  0
 20 21  1  0  0  0
 20 40  1  0  0  0
 20 41  1  0  0  0
 21 42  1  0  0  0
 21 43  1  0  0  0
 23 26  1  0  0  0
 24 25  2  0  0  0
 24 44  1  0  0  0
 25 45  1  0  0  0
M  END
> <s_m_entry_id>
747

> <s_m_entry_name>
7ggy.pdb.1_ligand

> <s_pdb_PDB_TITLE>
GROUP DEPOSITION SARS-COV-2 MAIN PROTEASE IN COMPLEX WITH INHIBITORS FROM THE COVID MOONSHOT -- CRYSTAL STRUCTURE OF SARS-COV-2 MAIN PROTEASE IN COMPLEX WITH ALP-POS-966F8DA6-2 (MPRO-X12717)

> <s_pdb_PDB_ID>
7GGY

> <s_m_Source_File>
7ggy.pdb.gz

> <s_user_Compound_ID>
ALP-POS-966f8da6-2

> <s_user_Monomer-Dimer>
Monomer

> <s_user_xcode>
Mpro-x12717

$$$$
