7GGZ_ligand
                    3D
 Schrodinger Suite 2021-2.
 45 47  0  0  1  0            999 V2000
    8.5806    0.4073   23.5856 N   0  3  0  0  0  0
    7.0144   -2.0444   17.7904 N   0  0  0  0  0  0
    7.4042   -0.4435   23.4350 C   0  0  0  0  0  0
    7.4717   -1.3378   22.2095 C   0  0  0  0  0  0
    8.0817   -1.3355   19.8278 C   0  0  0  0  0  0
    6.9781   -1.4355   18.9809 C   0  0  0  0  0  0
    8.1772   -2.5774   17.4090 C   0  0  0  0  0  0
    9.2965   -1.8923   19.4066 C   0  0  0  0  0  0
   11.7040   -2.7406   20.0096 C   0  0  0  0  0  0
    9.5989    2.3282   24.7176 C   0  0  0  0  0  0
    7.0875   -2.5042   22.2458 O   0  0  0  0  0  0
    7.9753   -0.7387   21.1068 N   0  0  0  0  0  0
   10.5691   -1.7852   20.2335 C   0  0  0  0  0  0
   10.9295   -2.8129   21.2661 C   0  0  0  0  0  0
    9.3262   -2.5340   18.1726 C   0  0  0  0  0  0
    9.7895   -0.3889   23.8137 C   0  0  0  0  0  0
   11.0091    0.5091   23.7815 C   0  0  0  0  0  0
    8.4201    1.3631   24.6856 C   0  0  0  0  0  0
   10.8698    1.5872   24.7702 N   0  0  0  0  0  0
   11.8910    1.8376   25.6198 C   0  0  0  0  0  0
   12.6529    0.9424   25.9555 O   0  0  0  0  0  0
   12.0957    3.2491   26.0836 C   0  0  0  0  0  0
    8.7037    0.9293   22.7298 H   0  0  0  0  0  0
    6.5115    0.1795   23.3798 H   0  0  0  0  0  0
    7.2862   -1.0593   24.3266 H   0  0  0  0  0  0
    6.0594   -0.9886   19.3311 H   0  0  0  0  0  0
    8.2549   -3.0774   16.4548 H   0  0  0  0  0  0
   12.5298   -2.1148   20.3479 H   0  0  0  0  0  0
   11.1798   -3.5049   19.4358 H   0  0  0  0  0  0
    9.5174    2.9718   25.5936 H   0  0  0  0  0  0
    9.5801    2.9539   23.8253 H   0  0  0  0  0  0
    8.3135    0.2116   21.1583 H   0  0  0  0  0  0
   10.8707   -0.7667   20.4778 H   0  0  0  0  0  0
   11.5712   -2.2041   21.9031 H   0  0  0  0  0  0
   10.2210   -3.5942   20.9909 H   0  0  0  0  0  0
   10.2332   -2.9948   17.8101 H   0  0  0  0  0  0
    9.8767   -1.1477   23.0360 H   0  0  0  0  0  0
    9.7242   -0.8778   24.7857 H   0  0  0  0  0  0
   11.1159    0.9407   22.7863 H   0  0  0  0  0  0
   11.8987   -0.0785   24.0080 H   0  0  0  0  0  0
    8.3673    0.8231   25.6310 H   0  0  0  0  0  0
    7.4956    1.9237   24.5476 H   0  0  0  0  0  0
   12.9506    3.2899   26.7586 H   0  0  0  0  0  0
   12.2818    3.8915   25.2230 H   0  0  0  0  0  0
   11.2035    3.5931   26.6069 H   0  0  0  0  0  0
  1  3  1  0  0  0
  1 16  1  0  0  0
  1 18  1  0  0  0
  1 23  1  0  0  0
  2  6  1  0  0  0
  2  7  2  0  0  0
  3  4  1  0  0  0
  3 24  1  0  0  0
  3 25  1  0  0  0
  4 11  2  0  0  0
  4 12  1  0  0  0
  5  6  2  0  0  0
  5  8  1  0  0  0
  5 12  1  0  0  0
  6 26  1  0  0  0
  7 15  1  0  0  0
  7 27  1  0  0  0
  8 13  1  0  0  0
  8 15  2  0  0  0
  9 13  1  0  0  0
  9 14  1  0  0  0
  9 28  1  0  0  0
  9 29  1  0  0  0
 10 18  1  0  0  0
 10 19  1  0  0  0
 10 30  1  0  0  0
 10 31  1  0  0  0
 12 32  1  0  0  0
 13 14  1  0  0  0
 13 33  1  0  0  0
 14 34  1  0  0  0
 14 35  1  0  0  0
 15 36  1  0  0  0
 16 17  1  0  0  0
 16 37  1  0  0  0
 16 38  1  0  0  0
 17 19  1  0  0  0
 17 39  1  0  0  0
 17 40  1  0  0  0
 18 41  1  0  0  0
 18 42  1  0  0  0
 19 20  1  0  0  0
 20 21  2  0  0  0
 20 22  1  0  0  0
 22 43  1  0  0  0
 22 44  1  0  0  0
 22 45  1  0  0  0
M  CHG  1   1   1
M  END
> <s_m_entry_id>
749

> <s_m_entry_name>
7ggz.pdb.1_ligand

> <s_pdb_PDB_TITLE>
GROUP DEPOSITION SARS-COV-2 MAIN PROTEASE IN COMPLEX WITH INHIBITORS FROM THE COVID MOONSHOT -- CRYSTAL STRUCTURE OF SARS-COV-2 MAIN PROTEASE IN COMPLEX WITH EDJ-MED-3C65E9CE-2 (MPRO-X12719)

> <s_pdb_PDB_ID>
7GGZ

> <s_m_Source_File>
7ggz.pdb.gz

> <s_user_Compound_ID>
EDJ-MED-3c65e9ce-2

> <s_user_Monomer-Dimer>
Monomer

> <s_user_xcode>
Mpro-x12719

$$$$
