7GH0_ligand
                    3D
 Schrodinger Suite 2021-2.
 40 43  0  0  1  0            999 V2000
    9.0180   -1.2120   20.8423 N   0  0  0  0  0  0
   10.0142   -1.0865   23.6520 C   0  0  0  0  0  0
    9.9936   -1.6630   25.0505 C   0  0  0  0  0  0
    7.6701   -1.8209   25.1639 C   0  0  0  0  0  0
    6.6778   -2.1171   26.0852 C   0  0  0  0  0  0
    5.4662   -1.4518   26.0172 C   0  0  0  0  0  0
    6.2606   -0.1939   24.1210 C   0  0  0  0  0  0
   11.3631   -2.0021   19.4039 C   0  0  0  0  0  0
   12.2721   -3.3765   17.6692 C   0  0  0  0  0  0
    9.9024   -2.9142   17.6830 C   0  0  0  0  0  0
    3.7700    0.3751   24.9832 Cl  0  0  0  0  0  0
    5.2787   -0.4933   25.0437 C   0  0  0  0  0  0
    7.4781   -0.8708   24.1663 C   0  0  0  0  0  0
    8.8541   -2.4976   25.2944 O   0  0  0  0  0  0
    8.5881   -0.6391   23.1612 C   0  0  2  0  0  0
    8.2033   -1.4232   21.9045 C   0  0  0  0  0  0
    7.3080   -2.2653   21.9131 O   0  0  0  0  0  0
    8.8806   -1.6263   19.5048 C   0  0  0  0  0  0
    7.6540   -1.8725   18.9173 C   0  0  0  0  0  0
   10.0588   -2.1380   18.8666 C   0  0  0  0  0  0
    8.6182   -3.1081   17.1671 C   0  0  0  0  0  0
    7.5327   -2.5944   17.7797 N   0  3  0  0  0  0
    6.3428   -2.8421   17.2990 O   0  5  0  0  0  0
   11.0391   -3.5291   17.1056 C   0  0  0  0  0  0
   12.4339   -2.6141   18.8145 C   0  0  0  0  0  0
    9.8713   -0.6840   20.9574 H   0  0  0  0  0  0
   10.4196   -1.8259   22.9613 H   0  0  0  0  0  0
   10.6919   -0.2332   23.6218 H   0  0  0  0  0  0
   10.0098   -0.8508   25.7772 H   0  0  0  0  0  0
   10.9051   -2.2364   25.2193 H   0  0  0  0  0  0
    6.8536   -2.8616   26.8476 H   0  0  0  0  0  0
    4.6815   -1.6855   26.7214 H   0  0  0  0  0  0
    6.0832    0.5612   23.3695 H   0  0  0  0  0  0
   11.5221   -1.4081   20.2918 H   0  0  0  0  0  0
   13.1326   -3.8522   17.2225 H   0  0  0  0  0  0
    8.6204    0.4221   22.9147 H   0  0  0  0  0  0
    6.7522   -1.4839   19.3668 H   0  0  0  0  0  0
    8.4809   -3.6788   16.2605 H   0  0  0  0  0  0
   10.9241   -4.1232   16.2111 H   0  0  0  0  0  0
   13.4200   -2.5061   19.2415 H   0  0  0  0  0  0
  1 16  1  0  0  0
  1 18  1  0  0  0
  1 26  1  0  0  0
  2  3  1  0  0  0
  2 15  1  0  0  0
  2 27  1  0  0  0
  2 28  1  0  0  0
  3 14  1  0  0  0
  3 29  1  0  0  0
  3 30  1  0  0  0
  4  5  1  0  0  0
  4 13  2  0  0  0
  4 14  1  0  0  0
  5  6  2  0  0  0
  5 31  1  0  0  0
  6 12  1  0  0  0
  6 32  1  0  0  0
  7 12  2  0  0  0
  7 13  1  0  0  0
  7 33  1  0  0  0
  8 20  1  0  0  0
  8 25  2  0  0  0
  8 34  1  0  0  0
  9 24  2  0  0  0
  9 25  1  0  0  0
  9 35  1  0  0  0
 10 20  1  0  0  0
 10 21  2  0  0  0
 10 24  1  0  0  0
 11 12  1  0  0  0
 13 15  1  0  0  0
 15 16  1  0  0  0
 15 36  1  0  0  0
 16 17  2  0  0  0
 18 19  1  0  0  0
 18 20  2  0  0  0
 19 22  2  0  0  0
 19 37  1  0  0  0
 21 22  1  0  0  0
 21 38  1  0  0  0
 22 23  1  0  0  0
 24 39  1  0  0  0
 25 40  1  0  0  0
M  CHG  2  22   1  23  -1
M  END
> <s_m_entry_id>
751

> <s_m_entry_name>
7gh0.pdb.1_ligand

> <s_pdb_PDB_TITLE>
GROUP DEPOSITION SARS-COV-2 MAIN PROTEASE IN COMPLEX WITH INHIBITORS FROM THE COVID MOONSHOT -- CRYSTAL STRUCTURE OF SARS-COV-2 MAIN PROTEASE IN COMPLEX WITH ALP-POS-CE760D3F-4 (MPRO-X12723)

> <s_pdb_PDB_ID>
7GH0

> <s_m_Source_File>
7gh0.pdb.gz

> <s_user_Compound_ID>
ALP-POS-ce760d3f-4

> <s_user_Monomer-Dimer>
Monomer

> <s_user_xcode>
Mpro-x12723

$$$$
