7GH1_ligand
                    3D
 Schrodinger Suite 2021-2.
 45 48  0  0  1  0            999 V2000
    8.6162   -0.9720   20.7008 N   0  0  0  0  0  0
    9.5028   -0.7096   24.4059 C   0  0  0  0  0  0
   10.1891   -1.6656   25.1379 C   0  0  0  0  0  0
   11.3616   -2.1943   24.6309 C   0  0  0  0  0  0
   11.8244   -1.7573   23.4076 C   0  0  0  0  0  0
   11.1525   -0.8057   22.6679 C   0  0  0  0  0  0
    9.0779    0.2772   20.8806 C   0  0  0  0  0  0
    7.9897   -2.8701   17.0538 C   0  0  0  0  0  0
   10.3141   -3.7683   17.0780 C   0  0  0  0  0  0
   11.7450   -3.2266   18.9172 C   0  0  0  0  0  0
    9.3698    1.0013   19.9414 O   0  0  0  0  0  0
    9.2156    0.7671   22.3310 C   0  0  2  0  0  0
    9.9690   -0.2682   23.1579 C   0  0  0  0  0  0
   13.3173   -2.3951   22.7877 Cl  0  0  0  0  0  0
    8.3623   -0.2208   25.0003 O   0  0  0  0  0  0
    7.8399    1.0011   24.4356 C   0  0  0  0  0  0
    7.7987    0.9229   22.9238 C   0  0  0  0  0  0
    9.8981    2.1422   22.4195 C   0  0  0  0  0  0
   11.1359    2.2700   21.6527 N   0  3  0  0  0  0
    8.4131   -1.6020   19.4561 C   0  0  0  0  0  0
    9.4826   -2.3652   18.9019 C   0  0  0  0  0  0
   10.7557   -2.4988   19.5123 C   0  0  0  0  0  0
   11.5247   -3.8597   17.7029 C   0  0  0  0  0  0
    9.2629   -3.0179   17.6575 C   0  0  0  0  0  0
    7.0001   -2.1529   17.5669 N   0  0  0  0  0  0
    7.2219   -1.5327   18.7313 C   0  0  0  0  0  0
    8.3822   -1.5437   21.4998 H   0  0  0  0  0  0
    9.8070   -1.9905   26.0943 H   0  0  0  0  0  0
   11.9041   -2.9409   25.1918 H   0  0  0  0  0  0
   11.5475   -0.4841   21.7156 H   0  0  0  0  0  0
    7.7772   -3.3594   16.1148 H   0  0  0  0  0  0
   10.1537   -4.2704   16.1353 H   0  0  0  0  0  0
   12.7112   -3.3139   19.3918 H   0  0  0  0  0  0
    8.4681    1.8387   24.7387 H   0  0  0  0  0  0
    6.8341    1.1764   24.8175 H   0  0  0  0  0  0
    7.1835    0.0755   22.6210 H   0  0  0  0  0  0
    7.3364    1.8264   22.5262 H   0  0  0  0  0  0
   10.0954    2.3802   23.4647 H   0  0  0  0  0  0
    9.1965    2.9139   22.1027 H   0  0  0  0  0  0
   11.5106    3.2005   21.7700 H   0  0  0  0  0  0
   11.8084    1.5927   21.9828 H   0  0  0  0  0  0
   10.9452    2.1052   20.6747 H   0  0  0  0  0  0
   10.9371   -2.0153   20.4608 H   0  0  0  0  0  0
   12.3235   -4.4298   17.2519 H   0  0  0  0  0  0
    6.3959   -0.9458   19.1048 H   0  0  0  0  0  0
  1  7  1  0  0  0
  1 20  1  0  0  0
  1 27  1  0  0  0
  2  3  1  0  0  0
  2 13  2  0  0  0
  2 15  1  0  0  0
  3  4  2  0  0  0
  3 28  1  0  0  0
  4  5  1  0  0  0
  4 29  1  0  0  0
  5  6  2  0  0  0
  5 14  1  0  0  0
  6 13  1  0  0  0
  6 30  1  0  0  0
  7 11  2  0  0  0
  7 12  1  0  0  0
  8 24  1  0  0  0
  8 25  2  0  0  0
  8 31  1  0  0  0
  9 23  1  0  0  0
  9 24  2  0  0  0
  9 32  1  0  0  0
 10 22  1  0  0  0
 10 23  2  0  0  0
 10 33  1  0  0  0
 12 13  1  0  0  0
 12 17  1  0  0  0
 12 18  1  0  0  0
 15 16  1  0  0  0
 16 17  1  0  0  0
 16 34  1  0  0  0
 16 35  1  0  0  0
 17 36  1  0  0  0
 17 37  1  0  0  0
 18 19  1  0  0  0
 18 38  1  0  0  0
 18 39  1  0  0  0
 19 40  1  0  0  0
 19 41  1  0  0  0
 19 42  1  0  0  0
 20 21  1  0  0  0
 20 26  2  0  0  0
 21 22  2  0  0  0
 21 24  1  0  0  0
 22 43  1  0  0  0
 23 44  1  0  0  0
 25 26  1  0  0  0
 26 45  1  0  0  0
M  CHG  1  19   1
M  END
> <s_m_entry_id>
753

> <s_m_entry_name>
7gh1.pdb.1_ligand

> <s_pdb_PDB_TITLE>
GROUP DEPOSITION SARS-COV-2 MAIN PROTEASE IN COMPLEX WITH INHIBITORS FROM THE COVID MOONSHOT -- CRYSTAL STRUCTURE OF SARS-COV-2 MAIN PROTEASE IN COMPLEX WITH MAT-POS-2BB0CF2B-1 (MPRO-X12731)

> <s_pdb_PDB_ID>
7GH1

> <s_m_Source_File>
7gh1.pdb.gz

> <s_user_Compound_ID>
MAT-POS-2bb0cf2b-1

> <s_user_Monomer-Dimer>
Monomer

> <s_user_xcode>
Mpro-x12731

$$$$
