7GH3_ligand
                    3D
 Schrodinger Suite 2021-2.
 40 41  0  0  1  0            999 V2000
    8.9658   -1.0686   20.3997 N   0  0  0  0  0  0
    8.9545   -0.7484   22.7964 C   0  0  0  0  0  0
    8.3191   -1.3458   21.5520 C   0  0  0  0  0  0
    8.6741   -1.6707   19.1528 C   0  0  0  0  0  0
    7.4057   -1.5705   18.5657 C   0  0  0  0  0  0
    8.0042   -2.9513   16.8480 C   0  0  0  0  0  0
    9.6494   -2.4585   18.5259 C   0  0  0  0  0  0
    6.0071    0.1131   24.9741 C   0  0  0  0  0  0
    7.3120   -2.0469   21.6274 O   0  0  0  0  0  0
    8.0553   -0.8163   23.9406 N   0  3  1  0  0  0
    8.7931   -0.6320   25.2098 C   0  0  0  0  0  0
    7.8516   -0.7151   26.4137 C   0  0  0  0  0  0
    6.9854    0.1925   23.8111 C   0  0  0  0  0  0
    6.7169    0.2919   26.3035 C   0  0  2  0  0  0
    5.7622    0.2184   27.4775 C   0  0  0  0  0  0
   11.0288   -2.6364   19.1105 C   0  0  0  0  0  0
    9.2871   -3.1044   17.3470 C   0  0  0  0  0  0
    7.0660   -2.1978   17.4336 N   0  0  0  0  0  0
    9.7139   -0.3901   20.3911 H   0  0  0  0  0  0
    9.2199    0.2913   22.6047 H   0  0  0  0  0  0
    9.8753   -1.2844   23.0264 H   0  0  0  0  0  0
    6.6428   -0.9623   19.0288 H   0  0  0  0  0  0
    7.7152   -3.4553   15.9376 H   0  0  0  0  0  0
    5.5031   -0.8532   24.9589 H   0  0  0  0  0  0
    5.2467    0.8860   24.8620 H   0  0  0  0  0  0
    7.6276   -1.7312   23.9531 H   0  0  0  0  0  0
    9.2892    0.3385   25.2034 H   0  0  0  0  0  0
    9.5622   -1.3994   25.2970 H   0  0  0  0  0  0
    8.4147   -0.5286   27.3281 H   0  0  0  0  0  0
    7.4382   -1.7214   26.4821 H   0  0  0  0  0  0
    7.4277    1.1881   23.7764 H   0  0  0  0  0  0
    6.4497    0.0351   22.8750 H   0  0  0  0  0  0
    7.1616    1.2871   26.3055 H   0  0  0  0  0  0
    6.3167    0.3519   28.4064 H   0  0  0  0  0  0
    5.0124    1.0043   27.3865 H   0  0  0  0  0  0
    5.2696   -0.7539   27.4856 H   0  0  0  0  0  0
   11.6182   -3.2843   18.4617 H   0  0  0  0  0  0
   11.5168   -1.6653   19.1935 H   0  0  0  0  0  0
   10.9495   -3.0883   20.0992 H   0  0  0  0  0  0
   10.0005   -3.7224   16.8221 H   0  0  0  0  0  0
  1  3  1  0  0  0
  1  4  1  0  0  0
  1 19  1  0  0  0
  2  3  1  0  0  0
  2 10  1  0  0  0
  2 20  1  0  0  0
  2 21  1  0  0  0
  3  9  2  0  0  0
  4  5  1  0  0  0
  4  7  2  0  0  0
  5 18  2  0  0  0
  5 22  1  0  0  0
  6 17  2  0  0  0
  6 18  1  0  0  0
  6 23  1  0  0  0
  7 16  1  0  0  0
  7 17  1  0  0  0
  8 13  1  0  0  0
  8 14  1  0  0  0
  8 24  1  0  0  0
  8 25  1  0  0  0
 10 11  1  0  0  0
 10 13  1  0  0  0
 10 26  1  0  0  0
 11 12  1  0  0  0
 11 27  1  0  0  0
 11 28  1  0  0  0
 12 14  1  0  0  0
 12 29  1  0  0  0
 12 30  1  0  0  0
 13 31  1  0  0  0
 13 32  1  0  0  0
 14 15  1  0  0  0
 14 33  1  0  0  0
 15 34  1  0  0  0
 15 35  1  0  0  0
 15 36  1  0  0  0
 16 37  1  0  0  0
 16 38  1  0  0  0
 16 39  1  0  0  0
 17 40  1  0  0  0
M  CHG  1  10   1
M  END
> <s_m_entry_id>
755

> <s_m_entry_name>
7gh3.pdb.1_ligand

> <s_pdb_PDB_TITLE>
GROUP DEPOSITION SARS-COV-2 MAIN PROTEASE IN COMPLEX WITH INHIBITORS FROM THE COVID MOONSHOT -- CRYSTAL STRUCTURE OF SARS-COV-2 MAIN PROTEASE IN COMPLEX WITH EDJ-MED-3C65E9CE-4 (MPRO-X12740)

> <s_pdb_PDB_ID>
7GH3

> <s_m_Source_File>
7gh3.pdb.gz

> <s_user_Compound_ID>
EDJ-MED-3c65e9ce-4

> <s_user_Monomer-Dimer>
Monomer

> <s_user_xcode>
Mpro-x12740

$$$$
