7GH4_ligand
                    3D
 Schrodinger Suite 2021-2.
 38 40  0  0  1  0            999 V2000
    8.8652   -1.1202   20.6889 N   0  0  0  0  0  0
    9.2903   -2.8805   17.4741 C   0  0  0  0  0  0
    7.9706   -2.7430   16.9862 C   0  0  0  0  0  0
    7.3282   -1.4760   18.7700 C   0  0  0  0  0  0
    8.5880   -1.4969   19.3638 C   0  0  0  0  0  0
    8.0717   -1.1656   21.7694 C   0  0  0  0  0  0
    7.6570   -0.5804   24.1433 C   0  0  0  0  0  0
    5.7857   -1.2109   26.1210 C   0  0  0  0  0  0
    6.4409    0.0921   24.2023 C   0  0  0  0  0  0
   10.9128   -2.3980   19.2314 C   0  0  0  0  0  0
    3.9848    0.5731   25.1902 Cl  0  0  0  0  0  0
    5.5235   -0.2385   25.1765 C   0  0  0  0  0  0
    7.0135   -1.8551   26.0881 C   0  0  0  0  0  0
    7.9422   -1.5377   25.1086 C   0  0  0  0  0  0
    8.5747   -0.3740   22.9610 C   0  0  0  0  0  0
    7.0828   -1.8860   21.8435 O   0  0  0  0  0  0
    7.0120   -2.0687   17.6119 N   0  0  0  0  0  0
    9.6170   -2.2242   18.6926 C   0  0  0  0  0  0
   10.2712   -3.6840   16.8466 C   0  0  0  0  0  0
   11.5141   -3.8193   17.3888 C   0  0  0  0  0  0
   11.8328   -3.1783   18.5805 C   0  0  0  0  0  0
   13.1177   -3.3800   19.0132 O   0  0  0  0  0  0
   13.5344   -2.7406   20.2217 C   0  0  0  0  0  0
    9.7752   -0.7544   20.9301 H   0  0  0  0  0  0
    7.6905   -3.2021   16.0496 H   0  0  0  0  0  0
    6.5143   -0.9517   19.2486 H   0  0  0  0  0  0
    5.0420   -1.4557   26.8648 H   0  0  0  0  0  0
    6.2186    0.8698   23.4866 H   0  0  0  0  0  0
   11.1810   -1.9149   20.1593 H   0  0  0  0  0  0
    7.2488   -2.6068   26.8269 H   0  0  0  0  0  0
    8.8962   -2.0440   25.1017 H   0  0  0  0  0  0
    8.6059    0.6853   22.7062 H   0  0  0  0  0  0
    9.5801   -0.7065   23.2195 H   0  0  0  0  0  0
   10.0391   -4.1994   15.9263 H   0  0  0  0  0  0
   12.2566   -4.4266   16.8926 H   0  0  0  0  0  0
   14.5731   -2.9973   20.4297 H   0  0  0  0  0  0
   13.4427   -1.6601   20.1119 H   0  0  0  0  0  0
   12.9056   -3.0762   21.0464 H   0  0  0  0  0  0
  1  5  1  0  0  0
  1  6  1  0  0  0
  1 24  1  0  0  0
  2  3  1  0  0  0
  2 18  1  0  0  0
  2 19  2  0  0  0
  3 17  2  0  0  0
  3 25  1  0  0  0
  4  5  2  0  0  0
  4 17  1  0  0  0
  4 26  1  0  0  0
  5 18  1  0  0  0
  6 15  1  0  0  0
  6 16  2  0  0  0
  7  9  1  0  0  0
  7 14  2  0  0  0
  7 15  1  0  0  0
  8 12  1  0  0  0
  8 13  2  0  0  0
  8 27  1  0  0  0
  9 12  2  0  0  0
  9 28  1  0  0  0
 10 18  2  0  0  0
 10 21  1  0  0  0
 10 29  1  0  0  0
 11 12  1  0  0  0
 13 14  1  0  0  0
 13 30  1  0  0  0
 14 31  1  0  0  0
 15 32  1  0  0  0
 15 33  1  0  0  0
 19 20  1  0  0  0
 19 34  1  0  0  0
 20 21  2  0  0  0
 20 35  1  0  0  0
 21 22  1  0  0  0
 22 23  1  0  0  0
 23 36  1  0  0  0
 23 37  1  0  0  0
 23 38  1  0  0  0
M  END
> <s_m_entry_id>
757

> <s_m_entry_name>
7gh4.pdb.1_ligand

> <s_pdb_PDB_TITLE>
GROUP DEPOSITION SARS-COV-2 MAIN PROTEASE IN COMPLEX WITH INHIBITORS FROM THE COVID MOONSHOT -- CRYSTAL STRUCTURE OF SARS-COV-2 MAIN PROTEASE IN COMPLEX WITH EDJ-MED-00C1612E-1 (MPRO-X12777)

> <s_pdb_PDB_ID>
7GH4

> <s_m_Source_File>
7gh4.pdb.gz

> <s_user_Compound_ID>
EDJ-MED-00c1612e-1

> <s_user_Monomer-Dimer>
Monomer

> <s_user_xcode>
Mpro-x12777

$$$$
