7GH5_ligand
                    3D
 Schrodinger Suite 2021-2.
 30 31  0  0  1  0            999 V2000
    8.5203   -0.9449   20.5637 N   0  0  0  0  0  0
    7.0994   -1.5267   18.6601 C   0  0  0  0  0  0
    8.3242   -1.5933   19.3256 C   0  0  0  0  0  0
    7.9386   -1.4021   21.7115 C   0  0  0  0  0  0
    7.5831   -0.8388   24.0562 C   0  0  0  0  0  0
    7.9897   -1.8041   24.9731 C   0  0  0  0  0  0
    5.9446   -1.4945   26.2062 C   0  0  0  0  0  0
    4.0337    0.2725   25.4812 Cl  0  0  0  0  0  0
    5.5725   -0.5216   25.2969 C   0  0  0  0  0  0
    7.1689   -2.1269   26.0434 C   0  0  0  0  0  0
    6.3757   -0.1714   24.2319 C   0  0  0  0  0  0
    8.2342   -0.6578   22.8187 N   0  0  0  0  0  0
    7.2151   -2.3879   21.7522 O   0  0  0  0  0  0
    9.3665   -2.3494   18.7556 C   0  0  0  0  0  0
   10.6725   -2.5795   19.4741 C   0  0  0  0  0  0
    6.8639   -2.1396   17.4949 N   0  0  0  0  0  0
    7.8698   -2.8379   16.9502 C   0  0  0  0  0  0
    9.1157   -2.9629   17.5338 C   0  0  0  0  0  0
    9.1028   -0.1214   20.6158 H   0  0  0  0  0  0
    6.2844   -0.9592   19.0844 H   0  0  0  0  0  0
    8.9417   -2.2989   24.8499 H   0  0  0  0  0  0
    5.2867   -1.7493   27.0239 H   0  0  0  0  0  0
    7.4812   -2.8750   26.7570 H   0  0  0  0  0  0
    6.0824    0.6052   23.5411 H   0  0  0  0  0  0
    8.9456    0.0576   22.7711 H   0  0  0  0  0  0
   11.3283   -3.1877   18.8511 H   0  0  0  0  0  0
   11.1504   -1.6210   19.6762 H   0  0  0  0  0  0
   10.4840   -3.0965   20.4150 H   0  0  0  0  0  0
    7.7284   -3.3407   16.0048 H   0  0  0  0  0  0
    9.8926   -3.5332   17.0464 H   0  0  0  0  0  0
  1  3  1  0  0  0
  1  4  1  0  0  0
  1 19  1  0  0  0
  2  3  1  0  0  0
  2 16  2  0  0  0
  2 20  1  0  0  0
  3 14  2  0  0  0
  4 12  1  0  0  0
  4 13  2  0  0  0
  5  6  1  0  0  0
  5 11  2  0  0  0
  5 12  1  0  0  0
  6 10  2  0  0  0
  6 21  1  0  0  0
  7  9  2  0  0  0
  7 10  1  0  0  0
  7 22  1  0  0  0
  8  9  1  0  0  0
  9 11  1  0  0  0
 10 23  1  0  0  0
 11 24  1  0  0  0
 12 25  1  0  0  0
 14 15  1  0  0  0
 14 18  1  0  0  0
 15 26  1  0  0  0
 15 27  1  0  0  0
 15 28  1  0  0  0
 16 17  1  0  0  0
 17 18  2  0  0  0
 17 29  1  0  0  0
 18 30  1  0  0  0
M  END
> <s_m_entry_id>
759

> <s_m_entry_name>
7gh5.pdb.1_ligand

> <s_pdb_PDB_TITLE>
GROUP DEPOSITION SARS-COV-2 MAIN PROTEASE IN COMPLEX WITH INHIBITORS FROM THE COVID MOONSHOT -- CRYSTAL STRUCTURE OF SARS-COV-2 MAIN PROTEASE IN COMPLEX WITH TRY-UNI-714-12 (MPRO-X2908)

> <s_pdb_PDB_ID>
7GH5

> <s_m_Source_File>
7gh5.pdb.gz

> <s_user_Compound_ID>
TRY-UNI-714-12

> <s_user_Monomer-Dimer>
Monomer

> <s_user_xcode>
Mpro-x2908

$$$$
