7GH6_ligand
                    3D
 Schrodinger Suite 2021-2.
 43 45  0  0  1  0            999 V2000
    8.6088   -3.2015   17.0743 N   0  0  0  0  0  0
    4.9291   -0.2898   25.6303 C   0  0  0  0  0  0
    5.9014    0.1633   24.7529 C   0  0  0  0  0  0
    6.9676   -0.6651   24.4210 C   0  0  0  0  0  0
    8.0179    0.9806   22.9826 C   0  0  0  0  0  0
    9.0903    0.9940   21.9349 C   0  0  0  0  0  0
    9.1233   -1.1519   18.8508 C   0  0  0  0  0  0
    9.9082   -3.0785   17.5638 C   0  0  0  0  0  0
   12.2051   -3.7856   17.6151 C   0  0  0  0  0  0
   11.4970   -1.9761   19.0245 C   0  0  0  0  0  0
    6.4172   -2.6387   17.0447 O   0  0  0  0  0  0
    7.5644   -2.3870   17.4324 C   0  0  0  0  0  0
    7.8816   -1.3275   18.3286 C   0  0  0  0  0  0
   10.2026   -2.0698   18.5021 C   0  0  0  0  0  0
   12.4878   -2.8325   18.5722 C   0  0  0  0  0  0
   10.9186   -3.9260   17.1181 C   0  0  0  0  0  0
    9.3706    0.0162   19.7180 C   0  0  0  0  0  0
   10.0186    0.9819   19.3169 O   0  0  0  0  0  0
    8.8798   -0.0597   20.9537 N   0  0  0  0  0  0
    7.9464   -0.3548   23.5061 O   0  0  0  0  0  0
    7.0694   -1.9450   25.0052 C   0  0  0  0  0  0
    8.1304   -2.6979   24.5782 O   0  0  0  0  0  0
    8.2707   -4.0205   25.1051 C   0  0  0  0  0  0
    5.0275   -1.5449   26.2026 C   0  0  0  0  0  0
    6.1024   -2.3718   25.9073 C   0  0  0  0  0  0
    8.3864   -3.9287   16.4096 H   0  0  0  0  0  0
    4.0850    0.3389   25.8726 H   0  0  0  0  0  0
    5.8284    1.1548   24.3311 H   0  0  0  0  0  0
    7.0630    1.2434   22.5276 H   0  0  0  0  0  0
    8.2846    1.6703   23.7834 H   0  0  0  0  0  0
   10.0625    0.8593   22.4090 H   0  0  0  0  0  0
    9.0951    1.9615   21.4330 H   0  0  0  0  0  0
   12.9895   -4.4302   17.2467 H   0  0  0  0  0  0
   11.7227   -1.2371   19.7790 H   0  0  0  0  0  0
    7.0848   -0.6469   18.5897 H   0  0  0  0  0  0
   13.4869   -2.7504   18.9739 H   0  0  0  0  0  0
   10.6991   -4.6902   16.3872 H   0  0  0  0  0  0
    8.3422   -0.8672   21.2349 H   0  0  0  0  0  0
    9.1545   -4.4916   24.6749 H   0  0  0  0  0  0
    8.3770   -3.9711   26.1887 H   0  0  0  0  0  0
    7.3877   -4.6079   24.8535 H   0  0  0  0  0  0
    4.2644   -1.8885   26.8852 H   0  0  0  0  0  0
    6.1899   -3.3418   26.3740 H   0  0  0  0  0  0
  1  8  1  0  0  0
  1 12  1  0  0  0
  1 26  1  0  0  0
  2  3  1  0  0  0
  2 24  2  0  0  0
  2 27  1  0  0  0
  3  4  2  0  0  0
  3 28  1  0  0  0
  4 20  1  0  0  0
  4 21  1  0  0  0
  5  6  1  0  0  0
  5 20  1  0  0  0
  5 29  1  0  0  0
  5 30  1  0  0  0
  6 19  1  0  0  0
  6 31  1  0  0  0
  6 32  1  0  0  0
  7 13  2  0  0  0
  7 14  1  0  0  0
  7 17  1  0  0  0
  8 14  1  0  0  0
  8 16  2  0  0  0
  9 15  2  0  0  0
  9 16  1  0  0  0
  9 33  1  0  0  0
 10 14  2  0  0  0
 10 15  1  0  0  0
 10 34  1  0  0  0
 11 12  2  0  0  0
 12 13  1  0  0  0
 13 35  1  0  0  0
 15 36  1  0  0  0
 16 37  1  0  0  0
 17 18  2  0  0  0
 17 19  1  0  0  0
 19 38  1  0  0  0
 21 22  1  0  0  0
 21 25  2  0  0  0
 22 23  1  0  0  0
 23 39  1  0  0  0
 23 40  1  0  0  0
 23 41  1  0  0  0
 24 25  1  0  0  0
 24 42  1  0  0  0
 25 43  1  0  0  0
M  END
> <s_m_entry_id>
761

> <s_m_entry_name>
7gh6.pdb.1_ligand

> <s_pdb_PDB_TITLE>
GROUP DEPOSITION SARS-COV-2 MAIN PROTEASE IN COMPLEX WITH INHIBITORS FROM THE COVID MOONSHOT -- CRYSTAL STRUCTURE OF SARS-COV-2 MAIN PROTEASE IN COMPLEX WITH MAT-POS-916-2 (MPRO-X2910)

> <s_pdb_PDB_ID>
7GH6

> <s_m_Source_File>
7gh6.pdb.gz

> <s_user_Compound_ID>
MAT-POS-916-2

> <s_user_Monomer-Dimer>
Monomer

> <s_user_xcode>
Mpro-x2910

$$$$
