7GH7_ligand
                    3D
 Schrodinger Suite 2021-2.
 35 36  0  0  1  0            999 V2000
    7.0297   -2.0585   17.6519 N   0  0  0  0  0  0
    7.2882   -1.5214   18.8448 C   0  0  0  0  0  0
    8.0084   -2.7624   17.0664 C   0  0  0  0  0  0
    9.2405   -2.9872   17.6471 C   0  0  0  0  0  0
    9.5185   -2.4452   18.8924 C   0  0  0  0  0  0
   10.8216   -2.7467   19.5891 C   0  0  0  0  0  0
    8.0246   -1.6084   25.2304 C   0  0  0  0  0  0
    5.5091   -0.4463   25.1383 C   0  0  0  0  0  0
    6.4523   -0.1480   24.1572 C   0  0  0  0  0  0
    3.1205    0.5051   24.8890 N   0  0  0  0  0  0
    4.1716    0.0762   25.0193 C   0  0  0  0  0  0
    5.8365   -1.3133   26.1790 C   0  0  0  0  0  0
    7.1016   -1.8779   26.2313 C   0  0  0  0  0  0
    7.7092   -0.7426   24.1849 C   0  0  0  0  0  0
    8.6962   -0.4576   23.0577 C   0  0  1  0  0  0
   10.1592   -0.6747   23.4636 C   0  0  0  0  0  0
    8.2522   -1.3148   21.8689 C   0  0  0  0  0  0
    7.4692   -2.2503   22.0029 O   0  0  0  0  0  0
    8.7829   -0.9689   20.6802 N   0  0  0  0  0  0
    8.5177   -1.6610   19.4866 C   0  0  0  0  0  0
    6.5278   -0.9492   19.3556 H   0  0  0  0  0  0
    7.8543   -3.1895   16.0865 H   0  0  0  0  0  0
    9.9800   -3.5819   17.1315 H   0  0  0  0  0  0
   10.8489   -2.2306   20.5488 H   0  0  0  0  0  0
   10.9068   -3.8210   19.7524 H   0  0  0  0  0  0
   11.6521   -2.4068   18.9705 H   0  0  0  0  0  0
    8.9999   -2.0716   25.2562 H   0  0  0  0  0  0
    6.2093    0.5489   23.3687 H   0  0  0  0  0  0
    5.1060   -1.5430   26.9406 H   0  0  0  0  0  0
    7.3687   -2.5278   27.0515 H   0  0  0  0  0  0
    8.5823    0.5885   22.7734 H   0  0  0  0  0  0
   10.8084   -0.4546   22.6162 H   0  0  0  0  0  0
   10.4087   -0.0132   24.2932 H   0  0  0  0  0  0
   10.3017   -1.7109   23.7703 H   0  0  0  0  0  0
    9.4057   -0.1763   20.6166 H   0  0  0  0  0  0
  1  2  1  0  0  0
  1  3  2  0  0  0
  2 20  2  0  0  0
  2 21  1  0  0  0
  3  4  1  0  0  0
  3 22  1  0  0  0
  4  5  2  0  0  0
  4 23  1  0  0  0
  5  6  1  0  0  0
  5 20  1  0  0  0
  6 24  1  0  0  0
  6 25  1  0  0  0
  6 26  1  0  0  0
  7 13  1  0  0  0
  7 14  2  0  0  0
  7 27  1  0  0  0
  8  9  2  0  0  0
  8 11  1  0  0  0
  8 12  1  0  0  0
  9 14  1  0  0  0
  9 28  1  0  0  0
 10 11  3  0  0  0
 12 13  2  0  0  0
 12 29  1  0  0  0
 13 30  1  0  0  0
 14 15  1  0  0  0
 15 16  1  0  0  0
 15 17  1  0  0  0
 15 31  1  0  0  0
 16 32  1  0  0  0
 16 33  1  0  0  0
 16 34  1  0  0  0
 17 18  2  0  0  0
 17 19  1  0  0  0
 19 20  1  0  0  0
 19 35  1  0  0  0
M  END
> <s_m_entry_id>
763

> <s_m_entry_name>
7gh7.pdb.1_ligand

> <s_pdb_PDB_TITLE>
GROUP DEPOSITION SARS-COV-2 MAIN PROTEASE IN COMPLEX WITH INHIBITORS FROM THE COVID MOONSHOT -- CRYSTAL STRUCTURE OF SARS-COV-2 MAIN PROTEASE IN COMPLEX WITH TRY-UNI-714-22 (MPRO-X2912)

> <s_pdb_PDB_ID>
7GH7

> <s_m_Source_File>
7gh7.pdb.gz

> <s_user_Compound_ID>
TRY-UNI-714-22

> <s_user_Monomer-Dimer>
Monomer

> <s_user_xcode>
Mpro-x2912

$$$$
