7GH8_ligand
                    3D
 Schrodinger Suite 2021-2.
 29 30  0  0  1  0            999 V2000
    6.9097   -2.0938   17.6156 N   0  0  0  0  0  0
    8.0366   -0.6607   22.9406 N   0  0  0  0  0  0
    7.8796   -1.4486   21.8336 C   0  0  0  0  0  0
    7.3796   -0.8931   24.1685 C   0  0  0  0  0  0
    7.7715   -1.9404   24.9943 C   0  0  0  0  0  0
    6.9212   -2.3862   25.9933 C   0  0  0  0  0  0
    5.6892   -1.7815   26.1884 C   0  0  0  0  0  0
    6.1782   -0.2339   24.4001 C   0  0  0  0  0  0
    3.8491    0.1265   25.6957 Cl  0  0  0  0  0  0
    5.3481   -0.6980   25.4000 C   0  0  0  0  0  0
    7.2228   -2.4865   21.8351 O   0  0  0  0  0  0
    8.4954   -0.9551   20.7168 N   0  0  0  0  0  0
    8.3796   -1.5272   19.4324 C   0  0  0  0  0  0
    7.1596   -1.4623   18.7642 C   0  0  0  0  0  0
    7.8959   -2.8068   17.0711 C   0  0  0  0  0  0
    9.3964   -2.2774   18.8514 C   0  0  0  0  0  0
    9.1676   -2.9424   17.6465 C   0  0  0  0  0  0
   10.1505   -3.7100   17.0719 N   0  0  0  0  0  0
    8.6511    0.1402   22.9075 H   0  0  0  0  0  0
    8.7369   -2.4046   24.8564 H   0  0  0  0  0  0
    7.2167   -3.2100   26.6262 H   0  0  0  0  0  0
    5.0165   -2.1580   26.9448 H   0  0  0  0  0  0
    5.9093    0.6246   23.8026 H   0  0  0  0  0  0
    9.0759   -0.1312   20.7826 H   0  0  0  0  0  0
    6.3924   -0.8590   19.2268 H   0  0  0  0  0  0
    7.7374   -3.3205   16.1345 H   0  0  0  0  0  0
   10.3608   -2.3443   19.3330 H   0  0  0  0  0  0
   11.0555   -3.7854   17.5139 H   0  0  0  0  0  0
    9.9685   -4.1992   16.2073 H   0  0  0  0  0  0
  1 14  1  0  0  0
  1 15  2  0  0  0
  2  3  1  0  0  0
  2  4  1  0  0  0
  2 19  1  0  0  0
  3 11  2  0  0  0
  3 12  1  0  0  0
  4  5  1  0  0  0
  4  8  2  0  0  0
  5  6  2  0  0  0
  5 20  1  0  0  0
  6  7  1  0  0  0
  6 21  1  0  0  0
  7 10  2  0  0  0
  7 22  1  0  0  0
  8 10  1  0  0  0
  8 23  1  0  0  0
  9 10  1  0  0  0
 12 13  1  0  0  0
 12 24  1  0  0  0
 13 14  2  0  0  0
 13 16  1  0  0  0
 14 25  1  0  0  0
 15 17  1  0  0  0
 15 26  1  0  0  0
 16 17  2  0  0  0
 16 27  1  0  0  0
 17 18  1  0  0  0
 18 28  1  0  0  0
 18 29  1  0  0  0
M  END
> <s_m_entry_id>
765

> <s_m_entry_name>
7gh8.pdb.1_ligand

> <s_pdb_PDB_TITLE>
GROUP DEPOSITION SARS-COV-2 MAIN PROTEASE IN COMPLEX WITH INHIBITORS FROM THE COVID MOONSHOT -- CRYSTAL STRUCTURE OF SARS-COV-2 MAIN PROTEASE IN COMPLEX WITH DAR-DIA-23AA0B97-13 (MPRO-X2964)

> <s_pdb_PDB_ID>
7GH8

> <s_m_Source_File>
7gh8.pdb.gz

> <s_user_Compound_ID>
DAR-DIA-23aa0b97-13

> <s_user_Monomer-Dimer>
Monomer

> <s_user_xcode>
Mpro-x2964

$$$$
