7GH9_ligand
                    3D
 Schrodinger Suite 2021-2.
 48 49  0  0  1  0            999 V2000
    7.4748   -0.8536   24.1466 N   0  3  1  0  0  0
    6.8338   -2.1459   17.7374 N   0  0  0  0  0  0
    6.7293   -1.8191   26.2841 C   0  0  0  0  0  0
    6.0623   -0.4917   26.6497 C   0  0  0  0  0  0
    5.7448    0.3484   25.4220 C   0  0  0  0  0  0
    6.9545    0.4688   24.5200 C   0  0  0  0  0  0
    8.4942   -0.7284   23.1077 C   0  0  0  0  0  0
    8.4476   -1.6091   19.4375 C   0  0  0  0  0  0
    7.7711   -2.8809   17.1319 C   0  0  0  0  0  0
    7.2728   -2.4157   21.9276 O   0  0  0  0  0  0
    8.0874   -1.4983   21.8650 C   0  0  0  0  0  0
    8.6713   -1.0797   20.7246 N   0  0  0  0  0  0
    7.1813   -1.5138   18.8611 C   0  0  0  0  0  0
    9.0674   -3.0079   17.6009 C   0  0  0  0  0  0
    9.4084   -2.3606   18.7734 C   0  0  0  0  0  0
    7.9112   -1.6101   25.3405 C   0  0  1  0  0  0
    8.7044   -2.8924   25.0641 C   0  0  0  0  0  0
    7.9164   -4.1855   24.9338 C   0  0  0  0  0  0
    8.5406   -5.2237   25.7623 N   0  0  3  0  0  0
    8.3643   -6.7955   25.4177 S   0  0  0  0  0  0
    9.4409   -7.4819   26.0635 O   0  0  0  0  0  0
    7.0219   -7.1479   25.7579 O   0  0  0  0  0  0
    8.5564   -6.9861   23.6880 C   0  0  0  0  0  0
    6.7052   -1.3665   23.7407 H   0  0  0  0  0  0
    5.9982   -2.4741   25.8103 H   0  0  0  0  0  0
    7.0733   -2.3144   27.1921 H   0  0  0  0  0  0
    6.7164    0.0716   27.3151 H   0  0  0  0  0  0
    5.1434   -0.6879   27.2021 H   0  0  0  0  0  0
    5.4254    1.3424   25.7352 H   0  0  0  0  0  0
    4.9248   -0.1109   24.8700 H   0  0  0  0  0  0
    6.6822    1.0191   23.6194 H   0  0  0  0  0  0
    7.7337    1.0340   25.0314 H   0  0  0  0  0  0
    9.4422   -1.1160   23.4808 H   0  0  0  0  0  0
    8.6280    0.3235   22.8554 H   0  0  0  0  0  0
    7.5344   -3.4170   16.2248 H   0  0  0  0  0  0
    9.3202   -0.3161   20.8508 H   0  0  0  0  0  0
    6.4646   -0.8885   19.3727 H   0  0  0  0  0  0
    9.7841   -3.6018   17.0531 H   0  0  0  0  0  0
   10.4085   -2.4341   19.1743 H   0  0  0  0  0  0
    8.5970   -0.9499   25.8714 H   0  0  0  0  0  0
    9.4675   -3.0140   25.8330 H   0  0  0  0  0  0
    9.3121   -2.7518   24.1702 H   0  0  0  0  0  0
    7.9135   -4.5055   23.8919 H   0  0  0  0  0  0
    6.8919   -4.0216   25.2679 H   0  0  0  0  0  0
    9.0892   -4.9404   26.5615 H   0  0  0  0  0  0
    8.4429   -8.0372   23.4229 H   0  0  0  0  0  0
    7.7986   -6.3976   23.1707 H   0  0  0  0  0  0
    9.5475   -6.6422   23.3919 H   0  0  0  0  0  0
  1  6  1  0  0  0
  1  7  1  0  0  0
  1 16  1  0  0  0
  1 24  1  0  0  0
  2  9  1  0  0  0
  2 13  2  0  0  0
  3  4  1  0  0  0
  3 16  1  0  0  0
  3 25  1  0  0  0
  3 26  1  0  0  0
  4  5  1  0  0  0
  4 27  1  0  0  0
  4 28  1  0  0  0
  5  6  1  0  0  0
  5 29  1  0  0  0
  5 30  1  0  0  0
  6 31  1  0  0  0
  6 32  1  0  0  0
  7 11  1  0  0  0
  7 33  1  0  0  0
  7 34  1  0  0  0
  8 12  1  0  0  0
  8 13  1  0  0  0
  8 15  2  0  0  0
  9 14  2  0  0  0
  9 35  1  0  0  0
 10 11  2  0  0  0
 11 12  1  0  0  0
 12 36  1  0  0  0
 13 37  1  0  0  0
 14 15  1  0  0  0
 14 38  1  0  0  0
 15 39  1  0  0  0
 16 17  1  0  0  0
 16 40  1  0  0  0
 17 18  1  0  0  0
 17 41  1  0  0  0
 17 42  1  0  0  0
 18 19  1  0  0  0
 18 43  1  0  0  0
 18 44  1  0  0  0
 19 20  1  0  0  0
 19 45  1  0  0  0
 20 21  2  0  0  0
 20 22  2  0  0  0
 20 23  1  0  0  0
 23 46  1  0  0  0
 23 47  1  0  0  0
 23 48  1  0  0  0
M  CHG  1   1   1
M  END
> <s_m_entry_id>
767

> <s_m_entry_name>
7gh9.pdb.1_ligand

> <s_pdb_PDB_TITLE>
GROUP DEPOSITION SARS-COV-2 MAIN PROTEASE IN COMPLEX WITH INHIBITORS FROM THE COVID MOONSHOT -- CRYSTAL STRUCTURE OF SARS-COV-2 MAIN PROTEASE IN COMPLEX WITH BEN-DND-362D364A-10 (MPRO-X2971)

> <s_pdb_PDB_ID>
7GH9

> <s_m_Source_File>
7gh9.pdb.gz

> <s_user_Compound_ID>
BEN-DND-362d364a-10

> <s_user_Monomer-Dimer>
Monomer

> <s_user_xcode>
Mpro-x2971

$$$$
