7GHB_ligand
                    3D
 Schrodinger Suite 2021-2.
 44 46  0  0  1  0            999 V2000
    8.3343   -0.9700   21.0445 N   0  0  0  0  0  0
    9.8955    1.1499   25.6627 N   0  0  0  0  0  0
    6.9955   -1.5347   19.0690 C   0  0  0  0  0  0
    7.8954   -2.6579   17.2971 C   0  0  0  0  0  0
    9.1288   -2.7492   17.9112 C   0  0  0  0  0  0
    9.3088   -2.2033   19.1786 C   0  0  0  0  0  0
   10.6384   -2.3110   19.8811 C   0  0  0  0  0  0
    6.9918    0.1733   27.6751 C   0  0  0  0  0  0
    8.7485    2.3339   27.4594 C   0  0  0  0  0  0
   10.5421    3.3800   26.2403 C   0  0  0  0  0  0
    8.9383    1.1982   26.6361 C   0  0  0  0  0  0
    6.9125   -1.9747   25.7147 O   0  0  0  0  0  0
    8.2185   -1.4294   25.9106 S   0  0  0  0  0  0
    9.2126   -2.1954   26.5971 O   0  0  0  0  0  0
    8.0299    0.1087   26.7864 C   0  0  0  0  0  0
   10.6530    2.2220   25.4947 C   0  0  0  0  0  0
    9.5981    3.4393   27.2206 C   0  0  0  0  0  0
    7.6887    2.3368   28.3965 C   0  0  0  0  0  0
    6.8330    1.2823   28.4844 C   0  0  0  0  0  0
    8.8227   -1.1075   24.4346 N   0  0  3  0  0  0
   10.2747   -1.2016   24.2521 C   0  0  0  0  0  0
    8.0381   -0.4473   23.3746 C   0  0  0  0  0  0
    7.7406   -1.3540   22.1947 C   0  0  0  0  0  0
    7.0321   -2.3529   22.3099 O   0  0  0  0  0  0
    8.2014   -1.5707   19.7717 C   0  0  0  0  0  0
    6.8334   -2.0657   17.8540 N   0  0  0  0  0  0
    8.9518   -0.1708   21.0372 H   0  0  0  0  0  0
    6.1300   -1.0588   19.5058 H   0  0  0  0  0  0
    7.7497   -3.0784   16.3131 H   0  0  0  0  0  0
    9.9474   -3.2423   17.4080 H   0  0  0  0  0  0
   10.5760   -1.8247   20.8546 H   0  0  0  0  0  0
   10.8945   -3.3618   20.0162 H   0  0  0  0  0  0
   11.4074   -1.8244   19.2811 H   0  0  0  0  0  0
    6.2909   -0.6452   27.7471 H   0  0  0  0  0  0
   11.1966    4.2156   26.0408 H   0  0  0  0  0  0
   11.4192    2.2279   24.7335 H   0  0  0  0  0  0
    9.4997    4.3347   27.8165 H   0  0  0  0  0  0
    7.5509    3.1829   29.0533 H   0  0  0  0  0  0
    6.0224    1.3190   29.1971 H   0  0  0  0  0  0
   10.5282   -0.9601   23.2199 H   0  0  0  0  0  0
   10.7718   -0.4996   24.9216 H   0  0  0  0  0  0
   10.6051   -2.2153   24.4792 H   0  0  0  0  0  0
    8.5723    0.4366   23.0261 H   0  0  0  0  0  0
    7.1014   -0.0796   23.7935 H   0  0  0  0  0  0
  1 23  1  0  0  0
  1 25  1  0  0  0
  1 27  1  0  0  0
  2 11  1  0  0  0
  2 16  2  0  0  0
  3 25  1  0  0  0
  3 26  2  0  0  0
  3 28  1  0  0  0
  4  5  2  0  0  0
  4 26  1  0  0  0
  4 29  1  0  0  0
  5  6  1  0  0  0
  5 30  1  0  0  0
  6  7  1  0  0  0
  6 25  2  0  0  0
  7 31  1  0  0  0
  7 32  1  0  0  0
  7 33  1  0  0  0
  8 15  1  0  0  0
  8 19  2  0  0  0
  8 34  1  0  0  0
  9 11  1  0  0  0
  9 17  1  0  0  0
  9 18  2  0  0  0
 10 16  1  0  0  0
 10 17  2  0  0  0
 10 35  1  0  0  0
 11 15  2  0  0  0
 12 13  2  0  0  0
 13 14  2  0  0  0
 13 15  1  0  0  0
 13 20  1  0  0  0
 16 36  1  0  0  0
 17 37  1  0  0  0
 18 19  1  0  0  0
 18 38  1  0  0  0
 19 39  1  0  0  0
 20 21  1  0  0  0
 20 22  1  0  0  0
 21 40  1  0  0  0
 21 41  1  0  0  0
 21 42  1  0  0  0
 22 23  1  0  0  0
 22 43  1  0  0  0
 22 44  1  0  0  0
 23 24  2  0  0  0
M  END
> <s_m_entry_id>
769

> <s_m_entry_name>
7ghb.pdb.1_ligand

> <s_pdb_PDB_TITLE>
GROUP DEPOSITION SARS-COV-2 MAIN PROTEASE IN COMPLEX WITH INHIBITORS FROM THE COVID MOONSHOT -- CRYSTAL STRUCTURE OF SARS-COV-2 MAIN PROTEASE IN COMPLEX WITH GAB-REV-70CC3CA5-8 (MPRO-X3080)

> <s_pdb_PDB_ID>
7GHB

> <s_m_Source_File>
7ghb.pdb.gz

> <s_user_Compound_ID>
GAB-REV-70cc3ca5-8

> <s_user_Monomer-Dimer>
Monomer

> <s_user_xcode>
Mpro-x3080

$$$$
