7GHC_ligand
                    3D
 Schrodinger Suite 2021-2.
 37 38  0  0  1  0            999 V2000
    8.0961   -1.4370   21.6488 N   0  0  0  0  0  0
    8.9150    3.5732   24.9369 N   0  0  0  0  0  0
    7.0118   -1.4377   19.4229 C   0  0  0  0  0  0
    8.0671   -1.7861   20.2716 C   0  0  0  0  0  0
    7.6207   -2.1463   22.7032 C   0  0  0  0  0  0
    8.0359   -1.6625   24.0813 C   0  0  0  0  0  0
   10.1991   -0.5693   24.0506 C   0  0  0  0  0  0
   10.5658    1.9204   24.3520 C   0  0  0  0  0  0
    9.8301    4.1678   25.7104 C   0  0  0  0  0  0
   10.8054   -1.6015   24.3327 O   0  0  0  0  0  0
   10.9270    0.6737   23.5757 C   0  0  0  0  0  0
    9.2953    2.4717   24.2766 C   0  0  0  0  0  0
   11.1231    3.7045   25.8495 C   0  0  0  0  0  0
   11.4877    2.5675   25.1566 C   0  0  0  0  0  0
    8.8726   -0.4831   24.0915 N   0  0  0  0  0  0
    6.9116   -3.1365   22.5886 O   0  0  0  0  0  0
    9.1547   -2.4938   19.7233 C   0  0  0  0  0  0
   10.3135   -2.9527   20.5699 C   0  0  0  0  0  0
    6.9806   -1.7303   18.1159 N   0  0  0  0  0  0
    8.0240   -2.3895   17.6095 C   0  0  0  0  0  0
    9.1116   -2.7874   18.3598 C   0  0  0  0  0  0
    8.5101   -0.5629   21.9396 H   0  0  0  0  0  0
    6.1591   -0.9020   19.8133 H   0  0  0  0  0  0
    8.5442   -2.4696   24.6087 H   0  0  0  0  0  0
    7.1452   -1.4777   24.6819 H   0  0  0  0  0  0
    9.5719    5.0573   26.2659 H   0  0  0  0  0  0
   10.7181    0.8332   22.5178 H   0  0  0  0  0  0
   12.0027    0.5085   23.6368 H   0  0  0  0  0  0
    8.5940    1.9562   23.6373 H   0  0  0  0  0  0
   11.8190    4.2291   26.4874 H   0  0  0  0  0  0
   12.4933    2.1831   25.2427 H   0  0  0  0  0  0
    8.4263    0.4221   24.1308 H   0  0  0  0  0  0
   11.0361   -3.4768   19.9443 H   0  0  0  0  0  0
   10.7920   -2.0887   21.0309 H   0  0  0  0  0  0
    9.9520   -3.6252   21.3478 H   0  0  0  0  0  0
    8.0469   -2.6391   16.5590 H   0  0  0  0  0  0
    9.9268   -3.3234   17.8968 H   0  0  0  0  0  0
  1  4  1  0  0  0
  1  5  1  0  0  0
  1 22  1  0  0  0
  2  9  1  0  0  0
  2 12  2  0  0  0
  3  4  1  0  0  0
  3 19  2  0  0  0
  3 23  1  0  0  0
  4 17  2  0  0  0
  5  6  1  0  0  0
  5 16  2  0  0  0
  6 15  1  0  0  0
  6 24  1  0  0  0
  6 25  1  0  0  0
  7 10  2  0  0  0
  7 11  1  0  0  0
  7 15  1  0  0  0
  8 11  1  0  0  0
  8 12  1  0  0  0
  8 14  2  0  0  0
  9 13  2  0  0  0
  9 26  1  0  0  0
 11 27  1  0  0  0
 11 28  1  0  0  0
 12 29  1  0  0  0
 13 14  1  0  0  0
 13 30  1  0  0  0
 14 31  1  0  0  0
 15 32  1  0  0  0
 17 18  1  0  0  0
 17 21  1  0  0  0
 18 33  1  0  0  0
 18 34  1  0  0  0
 18 35  1  0  0  0
 19 20  1  0  0  0
 20 21  2  0  0  0
 20 36  1  0  0  0
 21 37  1  0  0  0
M  END
> <s_m_entry_id>
771

> <s_m_entry_name>
7ghc.pdb.1_ligand

> <s_pdb_PDB_TITLE>
GROUP DEPOSITION SARS-COV-2 MAIN PROTEASE IN COMPLEX WITH INHIBITORS FROM THE COVID MOONSHOT -- CRYSTAL STRUCTURE OF SARS-COV-2 MAIN PROTEASE IN COMPLEX WITH GAB-REV-70CC3CA5-13 (MPRO-X3108)

> <s_pdb_PDB_ID>
7GHC

> <s_m_Source_File>
7ghc.pdb.gz

> <s_user_Compound_ID>
GAB-REV-70cc3ca5-13

> <s_user_Monomer-Dimer>
Monomer

> <s_user_xcode>
Mpro-x3108

$$$$
