7GHD_ligand
                    3D
 Schrodinger Suite 2021-2.
 44 46  0  0  1  0            999 V2000
    9.6385   -2.8245   24.7812 N   0  0  0  0  0  0
    8.9410   -6.7892   23.5766 C   0  0  0  0  0  0
    8.9360   -6.4818   24.9228 C   0  0  0  0  0  0
    9.1948   -5.1870   25.3480 C   0  0  0  0  0  0
    9.4638   -4.1870   24.4101 C   0  0  0  0  0  0
    7.5685   -1.3875   25.6995 C   0  0  0  0  0  0
    5.1974   -1.5849   25.9420 C   0  0  0  0  0  0
    7.4079   -0.3462   24.7995 C   0  0  0  0  0  0
    9.2574   -2.2777   18.7903 C   0  0  0  0  0  0
    7.6742   -2.5641   17.0505 C   0  0  0  0  0  0
    3.8185   -0.0920   24.7736 F   0  0  0  0  0  0
    5.0669   -0.5385   25.0645 C   0  0  0  0  0  0
    6.4712   -2.0170   26.2650 C   0  0  0  0  0  0
    6.1347    0.0869   24.4772 C   0  0  0  0  0  0
    9.1874   -1.9562   26.0831 S   0  0  0  0  0  0
    9.0921   -2.8512   27.1955 O   0  0  0  0  0  0
   10.0522   -0.8161   26.1611 O   0  0  0  0  0  0
    9.1728   -5.8020   22.6309 C   0  0  0  0  0  0
    9.4076   -4.4882   23.0426 C   0  0  0  0  0  0
    9.4003   -3.3963   22.1388 N   0  0  0  0  0  0
    8.2987   -2.7285   21.7100 C   0  0  0  0  0  0
    7.1537   -3.1123   21.9264 O   0  0  0  0  0  0
    8.5209   -1.3697   21.0386 C   0  0  1  0  0  0
    9.8629   -0.9056   21.1759 O   0  0  0  0  0  0
    8.2642   -1.7122   19.5798 C   0  0  0  0  0  0
    7.0070   -1.5853   19.0062 C   0  0  0  0  0  0
    6.6967   -2.0049   17.7743 N   0  0  0  0  0  0
    8.9669   -2.7145   17.5109 C   0  0  0  0  0  0
   10.1342   -2.1936   24.1677 H   0  0  0  0  0  0
    8.7636   -7.8044   23.2539 H   0  0  0  0  0  0
    8.7297   -7.2516   25.6517 H   0  0  0  0  0  0
    9.1881   -4.9535   26.4025 H   0  0  0  0  0  0
    4.3179   -2.0501   26.3623 H   0  0  0  0  0  0
    8.2738    0.1215   24.3547 H   0  0  0  0  0  0
   10.2616   -2.3778   19.1752 H   0  0  0  0  0  0
    7.4691   -2.9243   16.0532 H   0  0  0  0  0  0
    6.6143   -2.8380   26.9519 H   0  0  0  0  0  0
    6.0015    0.8992   23.7781 H   0  0  0  0  0  0
    9.1713   -6.0501   21.5798 H   0  0  0  0  0  0
   10.2691   -3.0522   21.7555 H   0  0  0  0  0  0
    7.8082   -0.6291   21.4014 H   0  0  0  0  0  0
    9.9536   -0.0544   20.7414 H   0  0  0  0  0  0
    6.2043   -1.1230   19.5614 H   0  0  0  0  0  0
    9.7414   -3.1583   16.9029 H   0  0  0  0  0  0
  1  5  1  0  0  0
  1 15  1  0  0  0
  1 29  1  0  0  0
  2  3  1  0  0  0
  2 18  2  0  0  0
  2 30  1  0  0  0
  3  4  2  0  0  0
  3 31  1  0  0  0
  4  5  1  0  0  0
  4 32  1  0  0  0
  5 19  2  0  0  0
  6  8  1  0  0  0
  6 13  2  0  0  0
  6 15  1  0  0  0
  7 12  2  0  0  0
  7 13  1  0  0  0
  7 33  1  0  0  0
  8 14  2  0  0  0
  8 34  1  0  0  0
  9 25  1  0  0  0
  9 28  2  0  0  0
  9 35  1  0  0  0
 10 27  2  0  0  0
 10 28  1  0  0  0
 10 36  1  0  0  0
 11 12  1  0  0  0
 12 14  1  0  0  0
 13 37  1  0  0  0
 14 38  1  0  0  0
 15 16  2  0  0  0
 15 17  2  0  0  0
 18 19  1  0  0  0
 18 39  1  0  0  0
 19 20  1  0  0  0
 20 21  1  0  0  0
 20 40  1  0  0  0
 21 22  2  0  0  0
 21 23  1  0  0  0
 23 24  1  0  0  0
 23 25  1  0  0  0
 23 41  1  0  0  0
 24 42  1  0  0  0
 25 26  2  0  0  0
 26 27  1  0  0  0
 26 43  1  0  0  0
 28 44  1  0  0  0
M  END
> <s_m_entry_id>
773

> <s_m_entry_name>
7ghd.pdb.1_ligand

> <s_pdb_PDB_TITLE>
GROUP DEPOSITION SARS-COV-2 MAIN PROTEASE IN COMPLEX WITH INHIBITORS FROM THE COVID MOONSHOT -- CRYSTAL STRUCTURE OF SARS-COV-2 MAIN PROTEASE IN COMPLEX WITH BAR-COM-4E090D3A-57 (MPRO-X3298)

> <s_pdb_PDB_ID>
7GHD

> <s_m_Source_File>
7ghd.pdb.gz

> <s_user_Compound_ID>
BAR-COM-4e090d3a-57

> <s_user_Monomer-Dimer>
Monomer

> <s_user_xcode>
Mpro-x3298

$$$$
