7GHE_ligand
                    3D
 Schrodinger Suite 2021-2.
 44 47  0  0  1  0            999 V2000
    8.2966   -0.1734   23.9726 N   0  0  0  0  0  0
    9.0388    1.1908   22.0758 C   0  0  0  0  0  0
    7.5082    0.1680   25.0727 C   0  0  0  0  0  0
    6.1390   -0.1171   25.0807 C   0  0  0  0  0  0
    5.3629    0.2481   26.1701 C   0  0  0  0  0  0
    5.9303    0.8857   27.2558 C   0  0  0  0  0  0
    8.0756    0.8138   26.1782 C   0  0  0  0  0  0
    7.5050   -2.3341   17.5913 C   0  0  0  0  0  0
   10.1234   -2.1639   18.7222 C   0  0  0  0  0  0
   12.3618   -3.0469   18.8143 C   0  0  0  0  0  0
    6.3726   -2.4863   17.1269 O   0  0  0  0  0  0
    7.8580   -1.2960   18.5049 C   0  0  0  0  0  0
    8.4984   -3.2239   17.2848 N   0  0  0  0  0  0
    9.7789   -3.1841   17.8127 C   0  0  0  0  0  0
   10.7293   -4.1284   17.4294 C   0  0  0  0  0  0
   12.0151   -4.0497   17.9350 C   0  0  0  0  0  0
   11.4254   -2.1095   19.2176 C   0  0  0  0  0  0
    9.0907   -1.1885   19.0687 C   0  0  0  0  0  0
    9.3688   -0.0199   19.9798 C   0  0  0  0  0  0
   10.1040    0.8730   19.5713 O   0  0  0  0  0  0
    8.7691    0.0485   21.1885 N   0  0  0  0  0  0
    9.3588    0.7118   23.4810 C   0  0  0  0  0  0
    8.0034   -1.3185   23.1028 C   0  0  0  0  0  0
    7.7145   -0.8618   21.6739 C   0  0  0  0  0  0
    7.2803    1.1690   27.2584 C   0  0  0  0  0  0
    8.1654    1.8423   22.1045 H   0  0  0  0  0  0
    9.8815    1.7620   21.6863 H   0  0  0  0  0  0
    5.6875   -0.6212   24.2390 H   0  0  0  0  0  0
    4.3042    0.0344   26.1748 H   0  0  0  0  0  0
    5.3173    1.1616   28.1010 H   0  0  0  0  0  0
    9.1325    1.0355   26.1902 H   0  0  0  0  0  0
   13.3707   -2.9873   19.1949 H   0  0  0  0  0  0
    7.1298   -0.5469   18.7787 H   0  0  0  0  0  0
    8.3207   -3.9742   16.6324 H   0  0  0  0  0  0
   10.4607   -4.9162   16.7413 H   0  0  0  0  0  0
   12.7494   -4.7826   17.6351 H   0  0  0  0  0  0
   11.7051   -1.3354   19.9168 H   0  0  0  0  0  0
   10.3062    0.1728   23.4739 H   0  0  0  0  0  0
    9.4516    1.5711   24.1452 H   0  0  0  0  0  0
    7.1407   -1.8587   23.4926 H   0  0  0  0  0  0
    8.8541   -1.9999   23.1010 H   0  0  0  0  0  0
    7.6565   -1.7317   21.0197 H   0  0  0  0  0  0
    6.7521   -0.3511   21.6438 H   0  0  0  0  0  0
    7.7252    1.6707   28.1050 H   0  0  0  0  0  0
  1  3  1  0  0  0
  1 22  1  0  0  0
  1 23  1  0  0  0
  2 21  1  0  0  0
  2 22  1  0  0  0
  2 26  1  0  0  0
  2 27  1  0  0  0
  3  4  1  0  0  0
  3  7  2  0  0  0
  4  5  2  0  0  0
  4 28  1  0  0  0
  5  6  1  0  0  0
  5 29  1  0  0  0
  6 25  2  0  0  0
  6 30  1  0  0  0
  7 25  1  0  0  0
  7 31  1  0  0  0
  8 11  2  0  0  0
  8 12  1  0  0  0
  8 13  1  0  0  0
  9 14  1  0  0  0
  9 17  2  0  0  0
  9 18  1  0  0  0
 10 16  2  0  0  0
 10 17  1  0  0  0
 10 32  1  0  0  0
 12 18  2  0  0  0
 12 33  1  0  0  0
 13 14  1  0  0  0
 13 34  1  0  0  0
 14 15  2  0  0  0
 15 16  1  0  0  0
 15 35  1  0  0  0
 16 36  1  0  0  0
 17 37  1  0  0  0
 18 19  1  0  0  0
 19 20  2  0  0  0
 19 21  1  0  0  0
 21 24  1  0  0  0
 22 38  1  0  0  0
 22 39  1  0  0  0
 23 24  1  0  0  0
 23 40  1  0  0  0
 23 41  1  0  0  0
 24 42  1  0  0  0
 24 43  1  0  0  0
 25 44  1  0  0  0
M  END
> <s_m_entry_id>
775

> <s_m_entry_name>
7ghe.pdb.1_ligand

> <s_pdb_PDB_TITLE>
GROUP DEPOSITION SARS-COV-2 MAIN PROTEASE IN COMPLEX WITH INHIBITORS FROM THE COVID MOONSHOT -- CRYSTAL STRUCTURE OF SARS-COV-2 MAIN PROTEASE IN COMPLEX WITH MAT-POS-916A2C5A-4 (MPRO-X3303)

> <s_pdb_PDB_ID>
7GHE

> <s_m_Source_File>
7ghe.pdb.gz

> <s_user_Compound_ID>
MAT-POS-916a2c5a-4

> <s_user_Monomer-Dimer>
Monomer

> <s_user_xcode>
Mpro-x3303

$$$$
