7GHF_ligand
                    3D
 Schrodinger Suite 2021-2.
 48 50  0  0  1  0            999 V2000
   10.1857    1.0062   21.6062 N   0  0  0  0  0  0
    7.0054   -2.9779   17.0645 N   0  0  0  0  0  0
    9.3447    0.9241   20.5551 C   0  0  0  0  0  0
    7.9792   -0.7055   21.8955 C   0  0  0  0  0  0
    7.7415    0.2213   23.0884 C   0  0  0  0  0  0
    7.0799   -0.4514   24.2675 C   0  0  0  0  0  0
    7.7361   -1.4462   24.9862 C   0  0  0  0  0  0
    5.8196   -1.7345   26.4006 C   0  0  0  0  0  0
    7.3927   -0.1472   19.5389 C   0  0  0  0  0  0
    9.0130   -1.8400   18.5908 C   0  0  0  0  0  0
    8.2598   -3.4467   17.0246 C   0  0  0  0  0  0
    9.4422    1.6641   19.5844 O   0  0  0  0  0  0
   10.5056    2.2316   22.3064 C   0  0  0  0  0  0
   11.1277    3.3250   21.4977 C   0  0  0  0  0  0
   12.4428    3.5941   21.2609 C   0  0  0  0  0  0
   10.3927    4.3566   21.0073 N   0  0  0  0  0  0
   11.2011    5.2603   20.5051 N   0  0  0  0  0  0
   12.4552    4.7983   20.6716 N   0  0  0  0  0  0
   13.6212    5.5818   20.2821 C   0  0  0  0  0  0
    8.3226    0.0215   20.6614 N   0  0  0  0  0  0
    7.7276   -1.3236   18.6525 C   0  0  0  0  0  0
    6.7643   -1.9362   17.8709 C   0  0  0  0  0  0
    9.2886   -2.9182   17.7704 C   0  0  0  0  0  0
    5.7927   -0.0954   24.6496 C   0  0  0  0  0  0
    5.1624   -0.7396   25.7038 C   0  0  0  0  0  0
    7.1093   -2.0813   26.0482 C   0  0  0  0  0  0
   10.6409    0.1748   21.9549 H   0  0  0  0  0  0
    7.0888   -1.3101   21.7236 H   0  0  0  0  0  0
    8.7774   -1.4077   22.1360 H   0  0  0  0  0  0
    7.1369    1.0710   22.7711 H   0  0  0  0  0  0
    8.6907    0.6538   23.4049 H   0  0  0  0  0  0
    8.7432   -1.7304   24.7190 H   0  0  0  0  0  0
    5.3251   -2.2384   27.2179 H   0  0  0  0  0  0
    7.3785    0.7639   18.9409 H   0  0  0  0  0  0
    6.3789   -0.2606   19.9229 H   0  0  0  0  0  0
    9.8008   -1.3998   19.1842 H   0  0  0  0  0  0
    8.5045   -4.2807   16.3835 H   0  0  0  0  0  0
   11.1498    2.0021   23.1552 H   0  0  0  0  0  0
    9.6073    2.6119   22.7929 H   0  0  0  0  0  0
   13.2004    2.8803   21.5490 H   0  0  0  0  0  0
   13.2955    6.5168   19.8262 H   0  0  0  0  0  0
   14.2247    5.7988   21.1635 H   0  0  0  0  0  0
   14.2165    5.0166   19.5650 H   0  0  0  0  0  0
    5.7679   -1.5250   17.9387 H   0  0  0  0  0  0
   10.2892   -3.3224   17.7278 H   0  0  0  0  0  0
    5.2714    0.6909   24.1240 H   0  0  0  0  0  0
    4.1557   -0.4619   25.9795 H   0  0  0  0  0  0
    7.6297   -2.8489   26.6016 H   0  0  0  0  0  0
  1  3  1  0  0  0
  1 13  1  0  0  0
  1 27  1  0  0  0
  2 11  1  0  0  0
  2 22  2  0  0  0
  3 12  2  0  0  0
  3 20  1  0  0  0
  4  5  1  0  0  0
  4 20  1  0  0  0
  4 28  1  0  0  0
  4 29  1  0  0  0
  5  6  1  0  0  0
  5 30  1  0  0  0
  5 31  1  0  0  0
  6  7  1  0  0  0
  6 24  2  0  0  0
  7 26  2  0  0  0
  7 32  1  0  0  0
  8 25  2  0  0  0
  8 26  1  0  0  0
  8 33  1  0  0  0
  9 20  1  0  0  0
  9 21  1  0  0  0
  9 34  1  0  0  0
  9 35  1  0  0  0
 10 21  2  0  0  0
 10 23  1  0  0  0
 10 36  1  0  0  0
 11 23  2  0  0  0
 11 37  1  0  0  0
 13 14  1  0  0  0
 13 38  1  0  0  0
 13 39  1  0  0  0
 14 15  2  0  0  0
 14 16  1  0  0  0
 15 18  1  0  0  0
 15 40  1  0  0  0
 16 17  2  0  0  0
 17 18  1  0  0  0
 18 19  1  0  0  0
 19 41  1  0  0  0
 19 42  1  0  0  0
 19 43  1  0  0  0
 21 22  1  0  0  0
 22 44  1  0  0  0
 23 45  1  0  0  0
 24 25  1  0  0  0
 24 46  1  0  0  0
 25 47  1  0  0  0
 26 48  1  0  0  0
M  END
> <s_m_entry_id>
777

> <s_m_entry_name>
7ghf.pdb.1_ligand

> <s_pdb_PDB_TITLE>
GROUP DEPOSITION SARS-COV-2 MAIN PROTEASE IN COMPLEX WITH INHIBITORS FROM THE COVID MOONSHOT -- CRYSTAL STRUCTURE OF SARS-COV-2 MAIN PROTEASE IN COMPLEX WITH BAR-COM-4E090D3A-47 (MPRO-X3305)

> <s_pdb_PDB_ID>
7GHF

> <s_m_Source_File>
7ghf.pdb.gz

> <s_user_Compound_ID>
BAR-COM-4e090d3a-47

> <s_user_Monomer-Dimer>
Monomer

> <s_user_xcode>
Mpro-x3305

$$$$
