7GHK_ligand
                    3D
 Schrodinger Suite 2021-2.
 25 26  0  0  1  0            999 V2000
   -3.9438  -25.3527    5.8574 N   0  0  0  0  0  0
   -4.7446  -24.9419    4.8204 C   0  0  0  0  0  0
   -4.5230  -23.9976    3.8264 C   0  0  0  0  0  0
   -5.5345  -23.7422    2.9146 C   0  0  0  0  0  0
   -6.7179  -24.4424    3.0233 C   0  0  0  0  0  0
   -6.9666  -25.3869    3.9919 C   0  0  0  0  0  0
   -7.6976  -24.2005    2.1110 F   0  0  0  0  0  0
   -5.9579  -25.6460    4.9172 C   0  0  0  0  0  0
   -4.6194  -26.2858    6.5966 C   0  0  0  0  0  0
   -5.8600  -26.4986    6.0689 C   0  0  0  0  0  0
   -6.9446  -27.3959    6.6108 C   0  0  0  0  0  0
   -7.6202  -26.7608    7.7479 N   0  3  0  0  0  0
   -8.0865  -25.4066    7.4419 C   0  0  0  0  0  0
   -3.0183  -24.9632    5.9657 H   0  0  0  0  0  0
   -3.5770  -23.4790    3.7754 H   0  0  0  0  0  0
   -5.3879  -23.0066    2.1375 H   0  0  0  0  0  0
   -7.9177  -25.8980    4.0162 H   0  0  0  0  0  0
   -4.1501  -26.7338    7.4600 H   0  0  0  0  0  0
   -6.5071  -28.3417    6.9306 H   0  0  0  0  0  0
   -7.6717  -27.6016    5.8253 H   0  0  0  0  0  0
   -6.9908  -26.7288    8.5371 H   0  0  0  0  0  0
   -8.4048  -27.3296    8.0326 H   0  0  0  0  0  0
   -8.5786  -24.9846    8.3182 H   0  0  0  0  0  0
   -7.2362  -24.7824    7.1674 H   0  0  0  0  0  0
   -8.7923  -25.4437    6.6121 H   0  0  0  0  0  0
  1  2  1  0  0  0
  1  9  1  0  0  0
  1 14  1  0  0  0
  2  3  1  0  0  0
  2  8  2  0  0  0
  3  4  2  0  0  0
  3 15  1  0  0  0
  4  5  1  0  0  0
  4 16  1  0  0  0
  5  6  2  0  0  0
  5  7  1  0  0  0
  6  8  1  0  0  0
  6 17  1  0  0  0
  8 10  1  0  0  0
  9 10  2  0  0  0
  9 18  1  0  0  0
 10 11  1  0  0  0
 11 12  1  0  0  0
 11 19  1  0  0  0
 11 20  1  0  0  0
 12 13  1  0  0  0
 12 21  1  0  0  0
 12 22  1  0  0  0
 13 23  1  0  0  0
 13 24  1  0  0  0
 13 25  1  0  0  0
M  CHG  1  12   1
M  END
> <s_m_entry_id>
779

> <s_m_entry_name>
7ghk.pdb.1_ligand

> <s_pdb_PDB_TITLE>
GROUP DEPOSITION SARS-COV-2 MAIN PROTEASE IN COMPLEX WITH INHIBITORS FROM THE COVID MOONSHOT -- CRYSTAL STRUCTURE OF SARS-COV-2 MAIN PROTEASE IN COMPLEX WITH DAR-DIA-EACE69FF-36 (MPRO-X3351)

> <s_pdb_PDB_ID>
7GHK

> <s_m_Source_File>
7ghk.pdb.gz

> <s_user_Compound_ID>
DAR-DIA-eace69ff-36

> <s_user_Monomer-Dimer>
Monomer

> <s_user_xcode>
Mpro-x3351

$$$$
