7GHL_ligand
                    3D
 Schrodinger Suite 2021-2.
 34 36  0  0  1  0            999 V2000
    8.1081   -0.8851   21.5930 N   0  0  0  0  0  0
    9.0617    3.8527   25.0138 N   0  0  0  0  0  0
    6.9194   -1.3940   19.4909 C   0  0  0  0  0  0
    8.0947   -1.3398   20.2458 C   0  0  0  0  0  0
    7.5106   -1.5459   22.6117 C   0  0  0  0  0  0
    7.5059   -0.8330   23.9516 C   0  0  0  0  0  0
    8.5717    0.2158   24.1777 C   0  0  0  0  0  0
   10.8671    0.7552   24.7687 C   0  0  0  0  0  0
    9.1618    2.4854   24.7399 C   0  0  0  0  0  0
    6.9672   -2.6342   22.4724 O   0  0  0  0  0  0
    6.8658   -1.8522   18.2323 N   0  0  0  0  0  0
    8.0107   -2.2595   17.6769 C   0  0  0  0  0  0
    9.2227   -2.2558   18.3399 C   0  0  0  0  0  0
    9.2891   -1.7937   19.6528 C   0  0  0  0  0  0
   10.5906   -1.8211   20.4104 C   0  0  0  0  0  0
    8.2063    1.5504   24.3435 C   0  0  0  0  0  0
   10.2754    4.2034   25.3924 C   0  0  0  0  0  0
   11.1633    3.1812   25.3859 N   0  0  0  0  0  0
   10.4737    2.0718   24.9639 C   0  0  0  0  0  0
    9.9039   -0.1559   24.3629 C   0  0  0  0  0  0
    8.5819   -0.0255   21.8311 H   0  0  0  0  0  0
    5.9871   -1.0552   19.9180 H   0  0  0  0  0  0
    7.5554   -1.5724   24.7510 H   0  0  0  0  0  0
    6.5246   -0.3883   24.1173 H   0  0  0  0  0  0
   11.8955    0.4689   24.9328 H   0  0  0  0  0  0
    8.0196   -2.6156   16.6573 H   0  0  0  0  0  0
   10.1125   -2.6099   17.8406 H   0  0  0  0  0  0
   11.3797   -2.2057   19.7642 H   0  0  0  0  0  0
   10.8454   -0.8115   20.7328 H   0  0  0  0  0  0
   10.4899   -2.4661   21.2833 H   0  0  0  0  0  0
    7.1863    1.8572   24.1652 H   0  0  0  0  0  0
   10.4799    5.2269   25.6701 H   0  0  0  0  0  0
   12.1212    3.3426   25.6624 H   0  0  0  0  0  0
   10.2086   -1.1774   24.1894 H   0  0  0  0  0  0
  1  4  1  0  0  0
  1  5  1  0  0  0
  1 21  1  0  0  0
  2  9  1  0  0  0
  2 17  2  0  0  0
  3  4  1  0  0  0
  3 11  2  0  0  0
  3 22  1  0  0  0
  4 14  2  0  0  0
  5  6  1  0  0  0
  5 10  2  0  0  0
  6  7  1  0  0  0
  6 23  1  0  0  0
  6 24  1  0  0  0
  7 16  2  0  0  0
  7 20  1  0  0  0
  8 19  1  0  0  0
  8 20  2  0  0  0
  8 25  1  0  0  0
  9 16  1  0  0  0
  9 19  2  0  0  0
 11 12  1  0  0  0
 12 13  2  0  0  0
 12 26  1  0  0  0
 13 14  1  0  0  0
 13 27  1  0  0  0
 14 15  1  0  0  0
 15 28  1  0  0  0
 15 29  1  0  0  0
 15 30  1  0  0  0
 16 31  1  0  0  0
 17 18  1  0  0  0
 17 32  1  0  0  0
 18 19  1  0  0  0
 18 33  1  0  0  0
 20 34  1  0  0  0
M  END
> <s_m_entry_id>
781

> <s_m_entry_name>
7ghl.pdb.1_ligand

> <s_pdb_PDB_TITLE>
GROUP DEPOSITION SARS-COV-2 MAIN PROTEASE IN COMPLEX WITH INHIBITORS FROM THE COVID MOONSHOT -- CRYSTAL STRUCTURE OF SARS-COV-2 MAIN PROTEASE IN COMPLEX WITH GAB-REV-70CC3CA5-18 (MPRO-X3366)

> <s_pdb_PDB_ID>
7GHL

> <s_m_Source_File>
7ghl.pdb.gz

> <s_user_Compound_ID>
GAB-REV-70cc3ca5-18

> <s_user_Monomer-Dimer>
Monomer

> <s_user_xcode>
Mpro-x3366

$$$$
