7GHM_ligand
                    3D
 Schrodinger Suite 2021-2.
 48 51  0  0  1  0            999 V2000
    8.6870   -3.3612   16.9877 N   0  0  0  0  0  0
    9.1892    0.5974   22.0343 C   0  0  0  0  0  0
    9.5029   -0.3001   19.7885 C   0  0  0  0  0  0
    9.2332   -1.4126   18.8623 C   0  0  0  0  0  0
    8.0096   -1.5031   18.2864 C   0  0  0  0  0  0
    7.6781   -2.4989   17.3289 C   0  0  0  0  0  0
   10.9058   -4.3074   17.1927 C   0  0  0  0  0  0
   11.5223   -2.3997   19.1401 C   0  0  0  0  0  0
    7.0604   -2.3207   24.9692 C   0  0  0  0  0  0
    4.9920   -4.7877   26.2201 C   0  0  1  0  0  0
    5.1092   -1.8309   26.3056 C   0  0  0  0  0  0
    4.7815   -8.0077   25.6418 O   0  0  0  0  0  0
    4.9727   -6.8105   25.8224 C   0  0  0  0  0  0
    5.1872   -5.5959   24.9304 C   0  0  0  0  0  0
    5.0656   -6.0773   26.9467 N   0  0  0  0  0  0
    6.1748   -3.9870   26.3882 O   0  0  0  0  0  0
    6.0993   -2.7070   25.8894 C   0  0  0  0  0  0
    5.1119   -0.5495   25.7878 C   0  0  0  0  0  0
    3.8372    0.5427   26.2359 Cl  0  0  0  0  0  0
    7.0341   -1.0234   24.4803 C   0  0  0  0  0  0
    6.0719   -0.1182   24.8955 C   0  0  0  0  0  0
    8.0109   -0.7317   23.5695 O   0  0  0  0  0  0
    8.0715    0.5935   23.0242 C   0  0  0  0  0  0
    8.9525   -0.4012   20.9965 N   0  0  0  0  0  0
   10.2078    0.6564   19.4568 O   0  0  0  0  0  0
   10.2651   -2.3820   18.5306 C   0  0  0  0  0  0
   12.4476   -3.3712   18.7870 C   0  0  0  0  0  0
   12.1447   -4.3129   17.8164 C   0  0  0  0  0  0
    9.9546   -3.3518   17.5570 C   0  0  0  0  0  0
    6.5452   -2.6531   16.8626 O   0  0  0  0  0  0
    8.5331   -4.0638   16.2777 H   0  0  0  0  0  0
   10.1259    0.3760   22.5450 H   0  0  0  0  0  0
    9.2668    1.5844   21.5779 H   0  0  0  0  0  0
    7.2360   -0.7982   18.5512 H   0  0  0  0  0  0
   10.6808   -5.0392   16.4300 H   0  0  0  0  0  0
   11.7729   -1.6579   19.8850 H   0  0  0  0  0  0
    7.8115   -3.0255   24.6457 H   0  0  0  0  0  0
    4.0462   -4.2536   26.3028 H   0  0  0  0  0  0
    4.3639   -2.1570   27.0157 H   0  0  0  0  0  0
    6.2511   -5.5615   24.6981 H   0  0  0  0  0  0
    4.2775   -5.4745   24.3428 H   0  0  0  0  0  0
    5.1478   -6.5353   27.8432 H   0  0  0  0  0  0
    6.0597    0.9016   24.5396 H   0  0  0  0  0  0
    7.1355    0.8177   22.5133 H   0  0  0  0  0  0
    8.2908    1.3045   23.8217 H   0  0  0  0  0  0
    8.3530   -1.1848   21.2139 H   0  0  0  0  0  0
   13.4128   -3.3970   19.2703 H   0  0  0  0  0  0
   12.8807   -5.0549   17.5459 H   0  0  0  0  0  0
  1  6  1  0  0  0
  1 29  1  0  0  0
  1 31  1  0  0  0
  2 23  1  0  0  0
  2 24  1  0  0  0
  2 32  1  0  0  0
  2 33  1  0  0  0
  3  4  1  0  0  0
  3 24  1  0  0  0
  3 25  2  0  0  0
  4  5  2  0  0  0
  4 26  1  0  0  0
  5  6  1  0  0  0
  5 34  1  0  0  0
  6 30  2  0  0  0
  7 28  1  0  0  0
  7 29  2  0  0  0
  7 35  1  0  0  0
  8 26  2  0  0  0
  8 27  1  0  0  0
  8 36  1  0  0  0
  9 17  1  0  0  0
  9 20  2  0  0  0
  9 37  1  0  0  0
 10 14  1  0  0  0
 10 15  1  0  0  0
 10 16  1  0  0  0
 10 38  1  0  0  0
 11 17  2  0  0  0
 11 18  1  0  0  0
 11 39  1  0  0  0
 12 13  2  0  0  0
 13 14  1  0  0  0
 13 15  1  0  0  0
 14 40  1  0  0  0
 14 41  1  0  0  0
 15 42  1  0  0  0
 16 17  1  0  0  0
 18 19  1  0  0  0
 18 21  2  0  0  0
 20 21  1  0  0  0
 20 22  1  0  0  0
 21 43  1  0  0  0
 22 23  1  0  0  0
 23 44  1  0  0  0
 23 45  1  0  0  0
 24 46  1  0  0  0
 26 29  1  0  0  0
 27 28  2  0  0  0
 27 47  1  0  0  0
 28 48  1  0  0  0
M  END
> <s_m_entry_id>
834

> <s_m_entry_name>
7ghm.pdb.1_A_ligand

> <s_pdb_PDB_TITLE>
GROUP DEPOSITION SARS-COV-2 MAIN PROTEASE IN COMPLEX WITH INHIBITORS FROM THE COVID MOONSHOT -- CRYSTAL STRUCTURE OF SARS-COV-2 MAIN PROTEASE IN COMPLEX WITH ERI-UCB-CE40166B-17 (MPRO-P0008)

> <s_pdb_PDB_ID>
7GHM

> <s_m_Source_File>
7ghm.pdb.gz

> <s_user_Compound_ID>
ERI-UCB-ce40166b-17

> <s_user_Monomer-Dimer>
Dimer

> <s_user_xcode>
Mpro-P0008

$$$$
