7GHN_ligand
                    3D
 Schrodinger Suite 2021-2.
 67 70  0  0  1  0            999 V2000
    9.3598   -3.5327   22.4448 N   0  0  0  0  0  0
    7.4341    0.0526   25.2010 C   0  0  0  0  0  0
    8.7945   -0.1832   25.0304 C   0  0  0  0  0  0
    9.3575   -0.2679   23.7701 C   0  0  0  0  0  0
    8.5576   -0.1478   22.6362 C   0  0  0  0  0  0
    7.1922    0.0803   22.7919 C   0  0  0  0  0  0
    9.2324   -1.7312   20.8240 C   0  0  1  0  0  0
    8.1146   -3.9278   24.5425 C   0  0  0  0  0  0
    7.9006   -5.6276   26.3977 C   0  0  0  0  0  0
    5.8529   -6.8316   26.7889 C   0  0  0  0  0  0
    8.8013   -1.8862   19.3738 C   0  0  0  0  0  0
    9.5248   -2.6913   18.5081 C   0  0  0  0  0  0
    9.0022   -3.0334   17.2740 C   0  0  0  0  0  0
    7.5719   -1.4238   18.9191 C   0  0  0  0  0  0
    9.7637    2.0507   21.1262 C   0  0  0  0  0  0
   10.1208    4.2470   21.2603 C   0  0  0  0  0  0
   10.3541    0.4263   19.5875 O   0  0  0  0  0  0
    9.7401    0.6402   20.6190 C   0  0  0  0  0  0
    9.4934    2.4442   22.4048 O   0  0  0  0  0  0
    9.7276    3.8053   22.4441 C   0  0  0  0  0  0
   10.1469    3.1213   20.3923 C   0  0  0  0  0  0
    9.1250   -0.3385   21.3274 N   0  0  0  0  0  0
    6.6407    0.1743   24.0609 C   0  0  0  0  0  0
    6.8675    0.2153   26.6194 C   0  0  0  0  0  0
    7.5305    1.4161   27.3041 C   0  0  0  0  0  0
    7.1705   -1.0415   27.4481 C   0  0  0  0  0  0
    5.3431    0.4392   26.6408 C   0  0  0  0  0  0
    7.0384   -1.7456   17.7324 N   0  0  0  0  0  0
    7.7572   -2.5421   16.9328 C   0  0  0  0  0  0
    8.5406   -2.7699   21.7220 C   0  0  0  0  0  0
    7.3224   -2.8903   21.7200 O   0  0  0  0  0  0
    8.8564   -4.5511   23.3583 C   0  0  0  0  0  0
    7.3205   -4.9336   25.3433 C   0  0  0  0  0  0
    5.9922   -5.1946   25.0207 C   0  0  0  0  0  0
    5.3050   -6.1386   25.7448 C   0  0  0  0  0  0
    4.0285   -6.4233   25.3787 F   0  0  0  0  0  0
    7.1740   -6.5683   27.1145 C   0  0  0  0  0  0
   10.3598   -3.4135   22.3682 H   0  0  0  0  0  0
    9.4338   -0.3042   25.8924 H   0  0  0  0  0  0
   10.4202   -0.4277   23.6630 H   0  0  0  0  0  0
    6.5595    0.1844   21.9228 H   0  0  0  0  0  0
   10.2943   -1.9761   20.8476 H   0  0  0  0  0  0
    7.4474   -3.1455   24.1805 H   0  0  0  0  0  0
    8.8303   -3.4289   25.1958 H   0  0  0  0  0  0
    8.9288   -5.4380   26.6684 H   0  0  0  0  0  0
    5.2589   -7.5548   27.3279 H   0  0  0  0  0  0
   10.5004   -3.0540   18.7962 H   0  0  0  0  0  0
    9.5653   -3.6688   16.6065 H   0  0  0  0  0  0
    6.9826   -0.7613   19.5357 H   0  0  0  0  0  0
   10.3467    5.2941   21.1224 H   0  0  0  0  0  0
    9.6314    4.4921   23.2720 H   0  0  0  0  0  0
   10.3980    2.9990   19.3490 H   0  0  0  0  0  0
    5.5786    0.3448   24.1578 H   0  0  0  0  0  0
    7.1270    1.5296   28.3103 H   0  0  0  0  0  0
    8.6069    1.2540   27.3609 H   0  0  0  0  0  0
    7.3296    2.3197   26.7285 H   0  0  0  0  0  0
    6.7665   -0.9207   28.4532 H   0  0  0  0  0  0
    6.7114   -1.9092   26.9743 H   0  0  0  0  0  0
    8.2491   -1.1880   27.5058 H   0  0  0  0  0  0
    5.0056    0.5466   27.6717 H   0  0  0  0  0  0
    5.1004    1.3439   26.0835 H   0  0  0  0  0  0
    4.8435   -0.4143   26.1826 H   0  0  0  0  0  0
    7.3185   -2.7976   15.9795 H   0  0  0  0  0  0
    9.6884   -5.1512   23.7266 H   0  0  0  0  0  0
    8.1844   -5.2201   22.8208 H   0  0  0  0  0  0
    5.5175   -4.6585   24.2122 H   0  0  0  0  0  0
    7.6378   -7.1005   27.9319 H   0  0  0  0  0  0
  1 30  1  0  0  0
  1 32  1  0  0  0
  1 38  1  0  0  0
  2  3  1  0  0  0
  2 23  2  0  0  0
  2 24  1  0  0  0
  3  4  2  0  0  0
  3 39  1  0  0  0
  4  5  1  0  0  0
  4 40  1  0  0  0
  5  6  2  0  0  0
  5 22  1  0  0  0
  6 23  1  0  0  0
  6 41  1  0  0  0
  7 11  1  0  0  0
  7 22  1  0  0  0
  7 30  1  0  0  0
  7 42  1  0  0  0
  8 32  1  0  0  0
  8 33  1  0  0  0
  8 43  1  0  0  0
  8 44  1  0  0  0
  9 33  1  0  0  0
  9 37  2  0  0  0
  9 45  1  0  0  0
 10 35  2  0  0  0
 10 37  1  0  0  0
 10 46  1  0  0  0
 11 12  1  0  0  0
 11 14  2  0  0  0
 12 13  2  0  0  0
 12 47  1  0  0  0
 13 29  1  0  0  0
 13 48  1  0  0  0
 14 28  1  0  0  0
 14 49  1  0  0  0
 15 18  1  0  0  0
 15 19  1  0  0  0
 15 21  2  0  0  0
 16 20  2  0  0  0
 16 21  1  0  0  0
 16 50  1  0  0  0
 17 18  2  0  0  0
 18 22  1  0  0  0
 19 20  1  0  0  0
 20 51  1  0  0  0
 21 52  1  0  0  0
 23 53  1  0  0  0
 24 25  1  0  0  0
 24 26  1  0  0  0
 24 27  1  0  0  0
 25 54  1  0  0  0
 25 55  1  0  0  0
 25 56  1  0  0  0
 26 57  1  0  0  0
 26 58  1  0  0  0
 26 59  1  0  0  0
 27 60  1  0  0  0
 27 61  1  0  0  0
 27 62  1  0  0  0
 28 29  2  0  0  0
 29 63  1  0  0  0
 30 31  2  0  0  0
 32 64  1  0  0  0
 32 65  1  0  0  0
 33 34  2  0  0  0
 34 35  1  0  0  0
 34 66  1  0  0  0
 35 36  1  0  0  0
 37 67  1  0  0  0
M  END
> <s_m_entry_id>
836

> <s_m_entry_name>
7ghn.pdb.1_A_ligand

> <s_pdb_PDB_TITLE>
GROUP DEPOSITION SARS-COV-2 MAIN PROTEASE IN COMPLEX WITH INHIBITORS FROM THE COVID MOONSHOT -- CRYSTAL STRUCTURE OF SARS-COV-2 MAIN PROTEASE IN COMPLEX WITH MAT-POS-F2460AEF-1 (MPRO-P0009)

> <s_pdb_PDB_ID>
7GHN

> <s_m_Source_File>
7ghn.pdb.gz

> <s_user_Compound_ID>
MAT-POS-f2460aef-1

> <s_user_Monomer-Dimer>
Dimer

> <s_user_xcode>
Mpro-P0009

$$$$
