7GHO_ligand
                    3D
 Schrodinger Suite 2021-2.
 38 41  0  0  1  0            999 V2000
    6.8617   -1.9091   17.7236 N   0  0  0  0  0  0
    7.3303   -1.2239   24.5239 C   0  0  0  0  0  0
    6.1468   -0.4945   24.4817 C   0  0  0  0  0  0
    8.3395   -1.1063   23.3921 C   0  0  2  0  0  0
    8.4939    0.3210   22.8239 C   0  0  0  0  0  0
    8.9636    0.0801   21.3953 C   0  0  0  0  0  0
    8.2320   -1.6700   19.7099 C   0  0  0  0  0  0
    9.0111   -3.0291   17.8361 C   0  0  0  0  0  0
   11.1175   -4.2124   17.9447 C   0  0  0  0  0  0
   10.4539   -2.8419   19.7944 C   0  0  0  0  0  0
    7.2840   -2.9492   22.1478 O   0  0  0  0  0  0
    7.9077   -1.8978   22.1632 C   0  0  0  0  0  0
    7.5456   -2.0991   25.5822 C   0  0  0  0  0  0
    6.5883   -2.2609   26.5726 C   0  0  0  0  0  0
    5.3938   -1.5575   26.5118 C   0  0  0  0  0  0
    5.1885   -0.6923   25.4558 C   0  0  0  0  0  0
    3.6430    0.0969   25.2914 Cl  0  0  0  0  0  0
    8.3400   -1.2109   21.0605 N   0  0  0  0  0  0
    9.2462   -2.4902   19.1347 C   0  0  0  0  0  0
   11.3593   -3.6807   19.2064 C   0  0  0  0  0  0
    9.9754   -3.8985   17.2653 C   0  0  0  0  0  0
    7.7948   -2.6886   17.1906 C   0  0  0  0  0  0
    7.0897   -1.4219   18.9532 C   0  0  0  0  0  0
    5.9816    0.2215   23.6901 H   0  0  0  0  0  0
    9.3099   -1.4674   23.7330 H   0  0  0  0  0  0
    9.2740    0.8455   23.3756 H   0  0  0  0  0  0
    7.5190    0.8082   22.8048 H   0  0  0  0  0  0
   10.0478   -0.0319   21.3876 H   0  0  0  0  0  0
    8.5550    0.8554   20.7471 H   0  0  0  0  0  0
   11.8363   -4.8803   17.4933 H   0  0  0  0  0  0
   10.6684   -2.4453   20.7758 H   0  0  0  0  0  0
    8.4659   -2.6616   25.6391 H   0  0  0  0  0  0
    6.7711   -2.9364   27.3952 H   0  0  0  0  0  0
    4.6478   -1.6927   27.2809 H   0  0  0  0  0  0
   12.2696   -3.9293   19.7319 H   0  0  0  0  0  0
    9.8099   -4.3190   16.2843 H   0  0  0  0  0  0
    7.6511   -3.1066   16.2051 H   0  0  0  0  0  0
    6.3564   -0.7856   19.4264 H   0  0  0  0  0  0
  1 22  2  0  0  0
  1 23  1  0  0  0
  2  3  1  0  0  0
  2  4  1  0  0  0
  2 13  2  0  0  0
  3 16  2  0  0  0
  3 24  1  0  0  0
  4  5  1  0  0  0
  4 12  1  0  0  0
  4 25  1  0  0  0
  5  6  1  0  0  0
  5 26  1  0  0  0
  5 27  1  0  0  0
  6 18  1  0  0  0
  6 28  1  0  0  0
  6 29  1  0  0  0
  7 18  1  0  0  0
  7 19  1  0  0  0
  7 23  2  0  0  0
  8 19  1  0  0  0
  8 21  2  0  0  0
  8 22  1  0  0  0
  9 20  2  0  0  0
  9 21  1  0  0  0
  9 30  1  0  0  0
 10 19  2  0  0  0
 10 20  1  0  0  0
 10 31  1  0  0  0
 11 12  2  0  0  0
 12 18  1  0  0  0
 13 14  1  0  0  0
 13 32  1  0  0  0
 14 15  2  0  0  0
 14 33  1  0  0  0
 15 16  1  0  0  0
 15 34  1  0  0  0
 16 17  1  0  0  0
 20 35  1  0  0  0
 21 36  1  0  0  0
 22 37  1  0  0  0
 23 38  1  0  0  0
M  END
> <s_m_entry_id>
838

> <s_m_entry_name>
7gho.pdb.1_A_ligand

> <s_pdb_PDB_TITLE>
GROUP DEPOSITION SARS-COV-2 MAIN PROTEASE IN COMPLEX WITH INHIBITORS FROM THE COVID MOONSHOT -- CRYSTAL STRUCTURE OF SARS-COV-2 MAIN PROTEASE IN COMPLEX WITH PET-UNK-C9C1E0D8-4 (MPRO-P0010)

> <s_pdb_PDB_ID>
7GHO

> <s_m_Source_File>
7gho.pdb.gz

> <s_user_Compound_ID>
PET-UNK-c9c1e0d8-4

> <s_user_Monomer-Dimer>
Dimer

> <s_user_xcode>
Mpro-P0010

$$$$
