7GHP_ligand
                    3D
 Schrodinger Suite 2021-2.
 38 41  0  0  1  0            999 V2000
   11.2738   -4.1144   17.8000 N   0  0  0  0  0  0
    9.5683   -2.7039   24.5625 C   0  0  0  0  0  0
    9.6988   -1.3393   23.9402 C   0  0  0  0  0  0
    8.3343   -0.8807   23.3904 C   0  0  1  0  0  0
    7.9630   -1.6273   22.1062 C   0  0  0  0  0  0
    8.4544   -1.5621   19.6742 C   0  0  0  0  0  0
   10.7082   -2.6690   19.6206 C   0  0  0  0  0  0
    9.1614   -2.9219   17.7618 C   0  0  0  0  0  0
    7.2300   -1.4593   19.0125 C   0  0  0  0  0  0
    5.2806   -1.5213   26.3731 C   0  0  0  0  0  0
    7.1658   -2.5649   22.0978 O   0  0  0  0  0  0
    8.6089   -2.7360   25.6511 O   0  0  0  0  0  0
    6.4670   -2.2330   26.4375 C   0  0  0  0  0  0
    7.4432   -2.0270   25.4730 C   0  0  0  0  0  0
    7.2508   -1.1137   24.4247 C   0  0  0  0  0  0
    6.0531   -0.4018   24.3831 C   0  0  0  0  0  0
    5.0925   -0.6132   25.3500 C   0  0  0  0  0  0
    3.5936    0.2720   25.2576 Cl  0  0  0  0  0  0
    8.6899   -1.2860   21.0280 N   0  0  0  0  0  0
    7.8845   -2.6728   17.2069 C   0  0  0  0  0  0
    6.9398   -1.9759   17.8089 N   0  0  0  0  0  0
   10.1242   -3.7997   17.2066 C   0  0  0  0  0  0
   11.5400   -3.5442   18.9860 C   0  0  0  0  0  0
    9.4659   -2.3343   19.0228 C   0  0  0  0  0  0
   10.5423   -3.0299   24.9282 H   0  0  0  0  0  0
    9.2738   -3.4239   23.7986 H   0  0  0  0  0  0
   10.4233   -1.3793   23.1267 H   0  0  0  0  0  0
   10.0449   -0.6290   24.6915 H   0  0  0  0  0  0
    8.3858    0.1862   23.1724 H   0  0  0  0  0  0
   10.9981   -2.2387   20.5681 H   0  0  0  0  0  0
    6.4111   -0.9247   19.4714 H   0  0  0  0  0  0
    4.5147   -1.6793   27.1181 H   0  0  0  0  0  0
    6.6281   -2.9434   27.2350 H   0  0  0  0  0  0
    5.8778    0.3147   23.5941 H   0  0  0  0  0  0
    9.5407   -0.7530   21.1406 H   0  0  0  0  0  0
    7.6342   -3.0629   16.2311 H   0  0  0  0  0  0
    9.8805   -4.2222   16.2427 H   0  0  0  0  0  0
   12.4634   -3.7704   19.4990 H   0  0  0  0  0  0
  1 22  1  0  0  0
  1 23  2  0  0  0
  2  3  1  0  0  0
  2 12  1  0  0  0
  2 25  1  0  0  0
  2 26  1  0  0  0
  3  4  1  0  0  0
  3 27  1  0  0  0
  3 28  1  0  0  0
  4  5  1  0  0  0
  4 15  1  0  0  0
  4 29  1  0  0  0
  5 11  2  0  0  0
  5 19  1  0  0  0
  6  9  2  0  0  0
  6 19  1  0  0  0
  6 24  1  0  0  0
  7 23  1  0  0  0
  7 24  2  0  0  0
  7 30  1  0  0  0
  8 20  1  0  0  0
  8 22  2  0  0  0
  8 24  1  0  0  0
  9 21  1  0  0  0
  9 31  1  0  0  0
 10 13  1  0  0  0
 10 17  2  0  0  0
 10 32  1  0  0  0
 12 14  1  0  0  0
 13 14  2  0  0  0
 13 33  1  0  0  0
 14 15  1  0  0  0
 15 16  2  0  0  0
 16 17  1  0  0  0
 16 34  1  0  0  0
 17 18  1  0  0  0
 19 35  1  0  0  0
 20 21  2  0  0  0
 20 36  1  0  0  0
 22 37  1  0  0  0
 23 38  1  0  0  0
M  END
> <s_m_entry_id>
840

> <s_m_entry_name>
7ghp.pdb.1_A_ligand

> <s_pdb_PDB_TITLE>
GROUP DEPOSITION SARS-COV-2 MAIN PROTEASE IN COMPLEX WITH INHIBITORS FROM THE COVID MOONSHOT -- CRYSTAL STRUCTURE OF SARS-COV-2 MAIN PROTEASE IN COMPLEX WITH BEN-DND-4F474D93-1 (MPRO-P0012)

> <s_pdb_PDB_ID>
7GHP

> <s_m_Source_File>
7ghp.pdb.gz

> <s_user_Compound_ID>
BEN-DND-4f474d93-1

> <s_user_Monomer-Dimer>
Dimer

> <s_user_xcode>
Mpro-P0012

$$$$
