7GHR_ligand
                    3D
 Schrodinger Suite 2021-2.
 41 44  0  0  1  0            999 V2000
    7.2101   -1.8342   17.3918 N   0  0  0  0  0  0
    8.1835   -1.6168   25.2970 C   0  0  0  0  0  0
    7.2218   -1.6372   26.2929 C   0  0  0  0  0  0
    9.0213   -0.9352   23.0107 C   0  0  2  0  0  0
    9.5863    0.4945   22.9024 C   0  0  0  0  0  0
   10.4716    0.6316   21.6698 C   0  0  0  0  0  0
    8.5066   -1.5098   21.6930 C   0  0  0  0  0  0
    8.0652   -2.6825   16.8336 C   0  0  0  0  0  0
   10.2085   -3.9499   16.7936 C   0  0  0  0  0  0
   11.7427   -3.6941   18.6109 C   0  0  0  0  0  0
    7.6877   -2.4153   21.6839 O   0  0  0  0  0  0
    7.9527   -0.9713   24.0891 C   0  0  0  0  0  0
    6.7362   -0.3266   23.9034 C   0  0  0  0  0  0
    5.7652   -0.3331   24.8890 C   0  0  0  0  0  0
    6.0193   -0.9969   26.0740 C   0  0  0  0  0  0
    4.7867   -1.0527   27.3018 Cl  0  0  0  0  0  0
    9.0459   -1.0081   20.5392 N   0  0  0  0  0  0
    9.6785    0.3154   20.4159 C   0  0  0  0  0  0
    8.7237   -1.5736   19.2668 C   0  0  0  0  0  0
    9.6552   -2.4662   18.6630 C   0  0  0  0  0  0
   10.9023   -2.8210   19.2383 C   0  0  0  0  0  0
   11.3967   -4.2570   17.3896 C   0  0  0  0  0  0
    9.3081   -3.0457   17.4069 C   0  0  0  0  0  0
    7.5469   -1.3054   18.5779 C   0  0  0  0  0  0
    9.1325   -2.1085   25.4527 H   0  0  0  0  0  0
    7.4187   -2.1489   27.2235 H   0  0  0  0  0  0
    9.8360   -1.5780   23.3445 H   0  0  0  0  0  0
   10.1687    0.7231   23.7950 H   0  0  0  0  0  0
    8.7632    1.2063   22.8391 H   0  0  0  0  0  0
   11.3139   -0.0557   21.7496 H   0  0  0  0  0  0
   10.8549    1.6503   21.6097 H   0  0  0  0  0  0
    7.8292   -3.1413   15.8847 H   0  0  0  0  0  0
    9.9481   -4.3979   15.8460 H   0  0  0  0  0  0
   12.6880   -3.9537   19.0640 H   0  0  0  0  0  0
    6.5355    0.1915   22.9772 H   0  0  0  0  0  0
    4.8264    0.1753   24.7256 H   0  0  0  0  0  0
   10.3454    0.3201   19.5536 H   0  0  0  0  0  0
    8.9089    1.0739   20.2723 H   0  0  0  0  0  0
   11.1829   -2.3889   20.1876 H   0  0  0  0  0  0
   12.0791   -4.9442   16.9114 H   0  0  0  0  0  0
    6.8795   -0.6129   19.0696 H   0  0  0  0  0  0
  1  8  2  0  0  0
  1 24  1  0  0  0
  2  3  1  0  0  0
  2 12  2  0  0  0
  2 25  1  0  0  0
  3 15  2  0  0  0
  3 26  1  0  0  0
  4  5  1  0  0  0
  4  7  1  0  0  0
  4 12  1  0  0  0
  4 27  1  0  0  0
  5  6  1  0  0  0
  5 28  1  0  0  0
  5 29  1  0  0  0
  6 18  1  0  0  0
  6 30  1  0  0  0
  6 31  1  0  0  0
  7 11  2  0  0  0
  7 17  1  0  0  0
  8 23  1  0  0  0
  8 32  1  0  0  0
  9 22  1  0  0  0
  9 23  2  0  0  0
  9 33  1  0  0  0
 10 21  1  0  0  0
 10 22  2  0  0  0
 10 34  1  0  0  0
 12 13  1  0  0  0
 13 14  2  0  0  0
 13 35  1  0  0  0
 14 15  1  0  0  0
 14 36  1  0  0  0
 15 16  1  0  0  0
 17 18  1  0  0  0
 17 19  1  0  0  0
 18 37  1  0  0  0
 18 38  1  0  0  0
 19 20  1  0  0  0
 19 24  2  0  0  0
 20 21  2  0  0  0
 20 23  1  0  0  0
 21 39  1  0  0  0
 22 40  1  0  0  0
 24 41  1  0  0  0
M  END
> <s_m_entry_id>
842

> <s_m_entry_name>
7ghr.pdb.1_A_ligand

> <s_pdb_PDB_TITLE>
GROUP DEPOSITION SARS-COV-2 MAIN PROTEASE IN COMPLEX WITH INHIBITORS FROM THE COVID MOONSHOT -- CRYSTAL STRUCTURE OF SARS-COV-2 MAIN PROTEASE IN COMPLEX WITH ALP-POS-CE760D3F-8 (MPRO-P0017)

> <s_pdb_PDB_ID>
7GHR

> <s_m_Source_File>
7ghr.pdb.gz

> <s_user_Compound_ID>
ALP-POS-ce760d3f-8

> <s_user_Monomer-Dimer>
Dimer

> <s_user_xcode>
Mpro-P001

$$$$
