7GHS_ligand
                    3D
 Schrodinger Suite 2021-2.
 42 45  0  0  1  0            999 V2000
    9.3831   -0.3709   21.0452 N   0  0  0  0  0  0
    7.0013   -0.8668   24.4984 C   0  0  0  0  0  0
    5.8844   -0.0514   24.6431 C   0  0  0  0  0  0
    8.3552    0.5813   23.0609 C   0  0  0  0  0  0
    9.5956    0.5460   22.1727 C   0  0  0  0  0  0
    9.0401   -1.7271   21.4569 C   0  0  0  0  0  0
    9.5109   -0.0228   19.7493 C   0  0  0  0  0  0
    8.1803   -2.7907   16.8258 C   0  0  0  0  0  0
   10.3105   -4.0877   16.9505 C   0  0  0  0  0  0
   12.0355   -3.3493   18.4398 C   0  0  0  0  0  0
    9.9509    1.0564   19.4059 O   0  0  0  0  0  0
    9.1008   -1.0265   18.7138 C   0  0  0  0  0  0
    9.9530   -2.1054   18.3447 C   0  0  0  0  0  0
   11.2593   -2.3101   18.8692 C   0  0  0  0  0  0
   11.5643   -4.2351   17.4798 C   0  0  0  0  0  0
    9.4725   -3.0217   17.3663 C   0  0  0  0  0  0
    7.3895   -1.7812   17.1763 N   0  0  0  0  0  0
    7.8501   -0.9309   18.1059 C   0  0  0  0  0  0
    7.9151   -1.8056   22.4518 C   0  0  0  0  0  0
    7.1681   -2.7803   22.4451 O   0  0  0  0  0  0
    7.7819   -0.7563   23.3110 N   0  0  0  0  0  0
    5.0210   -0.2839   25.6933 C   0  0  0  0  0  0
    3.4801    0.5193   25.6961 Cl  0  0  0  0  0  0
    7.2826   -1.8474   25.4531 C   0  0  0  0  0  0
    6.4252   -2.0225   26.5312 C   0  0  0  0  0  0
    5.2822   -1.2432   26.6553 C   0  0  0  0  0  0
    5.7045    0.7484   23.9396 H   0  0  0  0  0  0
    7.5989    1.2192   22.6024 H   0  0  0  0  0  0
    8.6045    1.0525   24.0122 H   0  0  0  0  0  0
    9.7986    1.5477   21.7933 H   0  0  0  0  0  0
   10.4522    0.2098   22.7577 H   0  0  0  0  0  0
    9.9240   -2.2133   21.8713 H   0  0  0  0  0  0
    8.7860   -2.3188   20.5769 H   0  0  0  0  0  0
    7.7801   -3.4596   16.0775 H   0  0  0  0  0  0
    9.9513   -4.7871   16.2092 H   0  0  0  0  0  0
   13.0264   -3.4880   18.8477 H   0  0  0  0  0  0
   11.6354   -1.6285   19.6185 H   0  0  0  0  0  0
   12.1975   -5.0466   17.1511 H   0  0  0  0  0  0
    7.1777   -0.1296   18.3768 H   0  0  0  0  0  0
    8.1634   -2.4647   25.3506 H   0  0  0  0  0  0
    6.6455   -2.7690   27.2802 H   0  0  0  0  0  0
    4.6024   -1.3754   27.4841 H   0  0  0  0  0  0
  1  5  1  0  0  0
  1  6  1  0  0  0
  1  7  1  0  0  0
  2  3  1  0  0  0
  2 21  1  0  0  0
  2 24  2  0  0  0
  3 22  2  0  0  0
  3 27  1  0  0  0
  4  5  1  0  0  0
  4 21  1  0  0  0
  4 28  1  0  0  0
  4 29  1  0  0  0
  5 30  1  0  0  0
  5 31  1  0  0  0
  6 19  1  0  0  0
  6 32  1  0  0  0
  6 33  1  0  0  0
  7 11  2  0  0  0
  7 12  1  0  0  0
  8 16  1  0  0  0
  8 17  2  0  0  0
  8 34  1  0  0  0
  9 15  1  0  0  0
  9 16  2  0  0  0
  9 35  1  0  0  0
 10 14  1  0  0  0
 10 15  2  0  0  0
 10 36  1  0  0  0
 12 13  1  0  0  0
 12 18  2  0  0  0
 13 14  2  0  0  0
 13 16  1  0  0  0
 14 37  1  0  0  0
 15 38  1  0  0  0
 17 18  1  0  0  0
 18 39  1  0  0  0
 19 20  2  0  0  0
 19 21  1  0  0  0
 22 23  1  0  0  0
 22 26  1  0  0  0
 24 25  1  0  0  0
 24 40  1  0  0  0
 25 26  2  0  0  0
 25 41  1  0  0  0
 26 42  1  0  0  0
M  END
> <s_m_entry_id>
844

> <s_m_entry_name>
7ghs.pdb.1_A_ligand

> <s_pdb_PDB_TITLE>
GROUP DEPOSITION SARS-COV-2 MAIN PROTEASE IN COMPLEX WITH INHIBITORS FROM THE COVID MOONSHOT -- CRYSTAL STRUCTURE OF SARS-COV-2 MAIN PROTEASE IN COMPLEX WITH ERI-UCB-D6DE1F3C-2 (MPRO-P0018)

> <s_pdb_PDB_ID>
7GHS

> <s_m_Source_File>
7ghs.pdb.gz

> <s_user_Compound_ID>
ERI-UCB-d6de1f3c-2

> <s_user_Monomer-Dimer>
Dimer

> <s_user_xcode>
Mpro-P0018

$$$$
