7GHT_ligand
                    3D
 Schrodinger Suite 2021-2.
 41 44  0  0  1  0            999 V2000
    6.8837   -1.8123   17.9769 N   0  0  0  0  0  0
    7.0493   -1.3771   24.6816 C   0  0  0  0  0  0
    5.8891   -0.6210   24.5361 C   0  0  0  0  0  0
    8.2079   -1.1924   23.7141 C   0  0  2  0  0  0
    8.6697    0.2684   23.7034 C   0  0  0  0  0  0
    9.7173    0.4940   22.6225 C   0  0  0  0  0  0
    7.8895   -1.7476   22.3305 C   0  0  0  0  0  0
    7.7705   -2.6200   17.4050 C   0  0  0  0  0  0
    9.9223   -3.8803   17.3837 C   0  0  0  0  0  0
   11.3615   -3.7589   19.2938 C   0  0  0  0  0  0
    7.1774   -2.7288   22.2012 O   0  0  0  0  0  0
    7.1131   -2.3263   25.6947 C   0  0  0  0  0  0
    6.0220   -2.5563   26.5180 C   0  0  0  0  0  0
    4.8484   -1.8364   26.3428 C   0  0  0  0  0  0
    4.8067   -0.8670   25.3590 C   0  0  0  0  0  0
    3.3497    0.0663   25.1422 Cl  0  0  0  0  0  0
    8.4884   -1.1469   21.2514 N   0  0  0  0  0  0
    9.1355    0.1785   21.2595 C   0  0  0  0  0  0
    8.3026   -1.6863   19.9389 C   0  0  0  0  0  0
    9.2570   -2.5521   19.3309 C   0  0  0  0  0  0
   10.4737   -2.9507   19.9471 C   0  0  0  0  0  0
   11.0853   -4.2242   18.0135 C   0  0  0  0  0  0
    8.9820   -3.0321   18.0187 C   0  0  0  0  0  0
    7.1593   -1.3657   19.2112 C   0  0  0  0  0  0
    5.8392    0.1521   23.7836 H   0  0  0  0  0  0
    9.0386   -1.7807   24.1041 H   0  0  0  0  0  0
    9.0910    0.5230   24.6760 H   0  0  0  0  0  0
    7.8139    0.9183   23.5207 H   0  0  0  0  0  0
   10.5760   -0.1511   22.8089 H   0  0  0  0  0  0
   10.0449    1.5334   22.6457 H   0  0  0  0  0  0
    7.5890   -3.0047   16.4122 H   0  0  0  0  0  0
    9.7133   -4.2558   16.3929 H   0  0  0  0  0  0
   12.2876   -4.0415   19.7722 H   0  0  0  0  0  0
    8.0195   -2.8936   25.8469 H   0  0  0  0  0  0
    6.0827   -3.2985   27.3002 H   0  0  0  0  0  0
    3.9920   -2.0391   26.9689 H   0  0  0  0  0  0
    9.9291    0.1994   20.5126 H   0  0  0  0  0  0
    8.4041    0.9411   20.9919 H   0  0  0  0  0  0
   10.6923   -2.6054   20.9468 H   0  0  0  0  0  0
   11.8001   -4.8633   17.5164 H   0  0  0  0  0  0
    6.4678   -0.7054   19.7135 H   0  0  0  0  0  0
  1  8  2  0  0  0
  1 24  1  0  0  0
  2  3  1  0  0  0
  2  4  1  0  0  0
  2 12  2  0  0  0
  3 15  2  0  0  0
  3 25  1  0  0  0
  4  5  1  0  0  0
  4  7  1  0  0  0
  4 26  1  0  0  0
  5  6  1  0  0  0
  5 27  1  0  0  0
  5 28  1  0  0  0
  6 18  1  0  0  0
  6 29  1  0  0  0
  6 30  1  0  0  0
  7 11  2  0  0  0
  7 17  1  0  0  0
  8 23  1  0  0  0
  8 31  1  0  0  0
  9 22  1  0  0  0
  9 23  2  0  0  0
  9 32  1  0  0  0
 10 21  1  0  0  0
 10 22  2  0  0  0
 10 33  1  0  0  0
 12 13  1  0  0  0
 12 34  1  0  0  0
 13 14  2  0  0  0
 13 35  1  0  0  0
 14 15  1  0  0  0
 14 36  1  0  0  0
 15 16  1  0  0  0
 17 18  1  0  0  0
 17 19  1  0  0  0
 18 37  1  0  0  0
 18 38  1  0  0  0
 19 20  1  0  0  0
 19 24  2  0  0  0
 20 21  2  0  0  0
 20 23  1  0  0  0
 21 39  1  0  0  0
 22 40  1  0  0  0
 24 41  1  0  0  0
M  END
> <s_m_entry_id>
846

> <s_m_entry_name>
7ght.pdb.1_A_ligand

> <s_pdb_PDB_TITLE>
GROUP DEPOSITION SARS-COV-2 MAIN PROTEASE IN COMPLEX WITH INHIBITORS FROM THE COVID MOONSHOT -- CRYSTAL STRUCTURE OF SARS-COV-2 MAIN PROTEASE IN COMPLEX WITH PET-UNK-C9C1E0D8-3 (MPRO-P0019)

> <s_pdb_PDB_ID>
7GHT

> <s_m_Source_File>
7ght.pdb.gz

> <s_user_Compound_ID>
PET-UNK-c9c1e0d8-3

> <s_user_Monomer-Dimer>
Dimer

> <s_user_xcode>
Mpro-P0019

$$$$
