7GHU_ligand
                    3D
 Schrodinger Suite 2021-2.
 41 45  0  0  1  0            999 V2000
    8.2473   -1.2059   21.0748 N   0  0  0  0  0  0
    9.4566   -2.5762   25.3639 C   0  0  0  0  0  0
    9.5284   -2.1429   23.9120 C   0  0  0  0  0  0
    8.2588   -1.4068   23.4266 C   0  0  1  0  0  0
    8.6696    0.0222   21.5978 C   0  0  0  0  0  0
    7.8658   -2.0827   22.0916 C   0  0  0  0  0  0
    7.0666   -1.3207   18.9057 C   0  0  0  0  0  0
   10.0033   -3.7462   17.2314 C   0  0  0  0  0  0
   11.3848   -3.4993   19.1681 C   0  0  0  0  0  0
    9.2412   -2.3624   19.1084 C   0  0  0  0  0  0
    7.2990   -3.1493   21.9698 O   0  0  0  0  0  0
    8.2129   -3.2196   25.6783 O   0  0  0  0  0  0
    7.1072   -1.4603   24.4264 C   0  0  0  0  0  0
    7.1351   -2.4004   25.4622 C   0  0  0  0  0  0
    6.0981   -2.5192   26.3733 C   0  0  0  0  0  0
    5.0004   -1.6878   26.2606 C   0  0  0  0  0  0
    6.0015   -0.6123   24.3387 C   0  0  0  0  0  0
    4.9580   -0.7600   25.2415 C   0  0  0  0  0  0
    3.5082    0.1862   25.0242 Cl  0  0  0  0  0  0
    9.0399    0.9822   20.9397 O   0  0  0  0  0  0
    8.5814   -0.0657   22.9484 N   0  0  0  0  0  0
    8.2149   -1.5339   19.6628 C   0  0  0  0  0  0
   10.4599   -2.6855   19.7614 C   0  0  0  0  0  0
   11.1572   -4.0284   17.9053 C   0  0  0  0  0  0
    9.0168   -2.9092   17.8096 C   0  0  0  0  0  0
    7.7965   -2.5968   17.1612 C   0  0  0  0  0  0
    6.8494   -1.8308   17.6837 N   0  0  0  0  0  0
    9.5880   -1.7070   26.0084 H   0  0  0  0  0  0
   10.2811   -3.2554   25.5806 H   0  0  0  0  0  0
    9.7038   -3.0152   23.2823 H   0  0  0  0  0  0
   10.3966   -1.4995   23.7689 H   0  0  0  0  0  0
    6.2692   -0.7053   19.2957 H   0  0  0  0  0  0
    9.8363   -4.1621   16.2488 H   0  0  0  0  0  0
   12.3043   -3.7367   19.6826 H   0  0  0  0  0  0
    6.1532   -3.2560   27.1611 H   0  0  0  0  0  0
    4.1869   -1.7686   26.9665 H   0  0  0  0  0  0
    5.9644    0.1493   23.5737 H   0  0  0  0  0  0
    8.7347    0.7536   23.5189 H   0  0  0  0  0  0
   10.6505   -2.2770   20.7428 H   0  0  0  0  0  0
   11.9023   -4.6683   17.4560 H   0  0  0  0  0  0
    7.5916   -2.9913   16.1769 H   0  0  0  0  0  0
  1  5  1  0  0  0
  1  6  1  0  0  0
  1 22  1  0  0  0
  2  3  1  0  0  0
  2 12  1  0  0  0
  2 28  1  0  0  0
  2 29  1  0  0  0
  3  4  1  0  0  0
  3 30  1  0  0  0
  3 31  1  0  0  0
  4  6  1  0  0  0
  4 13  1  0  0  0
  4 21  1  0  0  0
  5 20  2  0  0  0
  5 21  1  0  0  0
  6 11  2  0  0  0
  7 22  2  0  0  0
  7 27  1  0  0  0
  7 32  1  0  0  0
  8 24  1  0  0  0
  8 25  2  0  0  0
  8 33  1  0  0  0
  9 23  1  0  0  0
  9 24  2  0  0  0
  9 34  1  0  0  0
 10 22  1  0  0  0
 10 23  2  0  0  0
 10 25  1  0  0  0
 12 14  1  0  0  0
 13 14  1  0  0  0
 13 17  2  0  0  0
 14 15  2  0  0  0
 15 16  1  0  0  0
 15 35  1  0  0  0
 16 18  2  0  0  0
 16 36  1  0  0  0
 17 18  1  0  0  0
 17 37  1  0  0  0
 18 19  1  0  0  0
 21 38  1  0  0  0
 23 39  1  0  0  0
 24 40  1  0  0  0
 25 26  1  0  0  0
 26 27  2  0  0  0
 26 41  1  0  0  0
M  END
> <s_m_entry_id>
848

> <s_m_entry_name>
7ghu.pdb.1_A_ligand

> <s_pdb_PDB_TITLE>
GROUP DEPOSITION SARS-COV-2 MAIN PROTEASE IN COMPLEX WITH INHIBITORS FROM THE COVID MOONSHOT -- CRYSTAL STRUCTURE OF SARS-COV-2 MAIN PROTEASE IN COMPLEX WITH VLA-UCB-29506327-1 (MPRO-P0022)

> <s_pdb_PDB_ID>
7GHU

> <s_m_Source_File>
7ghu.pdb.gz

> <s_user_Compound_ID>
VLA-UCB-29506327-1

> <s_user_Monomer-Dimer>
Dimer

> <s_user_xcode>
Mpro-P0022

$$$$
