7GHX_ligand
                    3D
 Schrodinger Suite 2021-2.
 40 43  0  0  1  0            999 V2000
   10.2948   -3.4593   17.5301 N   0  0  0  0  0  0
    8.5074   -1.2691   21.1571 N   0  0  0  0  0  0
    7.0855   -1.5531   19.1364 C   0  0  0  0  0  0
    8.3136   -1.5667   19.7965 C   0  0  0  0  0  0
    7.7823   -1.6560   22.2190 C   0  0  0  0  0  0
    8.1142   -0.9245   23.5217 C   0  0  2  0  0  0
    9.4529   -1.4111   24.1109 C   0  0  0  0  0  0
    7.1346   -2.0673   25.5642 C   0  0  0  0  0  0
    4.8279   -0.6035   25.3849 C   0  0  0  0  0  0
    6.9988   -1.1393   24.5243 C   0  0  0  0  0  0
    3.3479    0.2933   25.2396 Cl  0  0  0  0  0  0
    4.9561   -1.5299   26.3974 C   0  0  0  0  0  0
    6.1202   -2.2708   26.4894 C   0  0  0  0  0  0
    5.8269   -0.3965   24.4560 C   0  0  0  0  0  0
    8.2883   -2.7789   25.7898 O   0  0  0  0  0  0
    9.2753   -2.7721   24.7290 C   0  0  0  0  0  0
    7.0440   -2.6383   22.1890 O   0  0  0  0  0  0
    6.8798   -2.0527   17.9092 N   0  0  0  0  0  0
    7.9068   -2.6418   17.2938 C   0  0  0  0  0  0
    9.3697   -2.2023   19.1356 C   0  0  0  0  0  0
   10.6596   -2.5890   19.5197 N   0  0  0  0  0  0
   11.3411   -2.2973   20.7809 C   0  0  0  0  0  0
    9.1506   -2.7672   17.8871 C   0  0  0  0  0  0
   11.2327   -3.3564   18.5162 C   0  0  0  0  0  0
   12.3558   -3.8414   18.5315 O   0  0  0  0  0  0
   10.3375   -3.9427   16.6439 H   0  0  0  0  0  0
    9.2834   -0.6873   21.4411 H   0  0  0  0  0  0
    6.2197   -1.1192   19.6154 H   0  0  0  0  0  0
    8.1942    0.1424   23.3121 H   0  0  0  0  0  0
    9.7919   -0.7075   24.8719 H   0  0  0  0  0  0
   10.2005   -1.4662   23.3186 H   0  0  0  0  0  0
    4.1531   -1.6704   27.1070 H   0  0  0  0  0  0
    6.2429   -3.0030   27.2736 H   0  0  0  0  0  0
    5.6971    0.3414   23.6782 H   0  0  0  0  0  0
   10.2313   -3.1183   25.1210 H   0  0  0  0  0  0
    8.9829   -3.4855   23.9578 H   0  0  0  0  0  0
    7.7831   -3.0410   16.2976 H   0  0  0  0  0  0
   12.3366   -2.7412   20.7671 H   0  0  0  0  0  0
   11.4276   -1.2178   20.9075 H   0  0  0  0  0  0
   10.7676   -2.7152   21.6093 H   0  0  0  0  0  0
  1 23  1  0  0  0
  1 24  1  0  0  0
  1 26  1  0  0  0
  2  4  1  0  0  0
  2  5  1  0  0  0
  2 27  1  0  0  0
  3  4  2  0  0  0
  3 18  1  0  0  0
  3 28  1  0  0  0
  4 20  1  0  0  0
  5  6  1  0  0  0
  5 17  2  0  0  0
  6  7  1  0  0  0
  6 10  1  0  0  0
  6 29  1  0  0  0
  7 16  1  0  0  0
  7 30  1  0  0  0
  7 31  1  0  0  0
  8 10  1  0  0  0
  8 13  2  0  0  0
  8 15  1  0  0  0
  9 11  1  0  0  0
  9 12  2  0  0  0
  9 14  1  0  0  0
 10 14  2  0  0  0
 12 13  1  0  0  0
 12 32  1  0  0  0
 13 33  1  0  0  0
 14 34  1  0  0  0
 15 16  1  0  0  0
 16 35  1  0  0  0
 16 36  1  0  0  0
 18 19  2  0  0  0
 19 23  1  0  0  0
 19 37  1  0  0  0
 20 21  1  0  0  0
 20 23  2  0  0  0
 21 22  1  0  0  0
 21 24  1  0  0  0
 22 38  1  0  0  0
 22 39  1  0  0  0
 22 40  1  0  0  0
 24 25  2  0  0  0
M  END
> <s_m_entry_id>
1050

> <s_m_entry_name>
7ghx.pdb.1_A_ligand

> <s_pdb_PDB_TITLE>
GROUP DEPOSITION SARS-COV-2 MAIN PROTEASE IN COMPLEX WITH INHIBITORS FROM THE COVID MOONSHOT -- CRYSTAL STRUCTURE OF SARS-COV-2 MAIN PROTEASE IN COMPLEX WITH EDG-MED-0E5AFE9D-1 (MPRO-P0030)

> <s_pdb_PDB_ID>
7GHX

> <s_m_Source_File>
7ghx.pdb.gz

> <s_user_Compound_ID>
EDG-MED-0e5afe9d-1

> <s_user_Monomer-Dimer>
Dimer

> <s_user_xcode>
Mpro-P0030

> <s_user_Ligands_in_both_active_sites>
YES

$$$$
