7GHY_ligand
                    3D
 Schrodinger Suite 2021-2.
 43 46  0  0  1  0            999 V2000
    7.1519   -1.8846   17.5925 N   0  0  0  0  0  0
    9.5336   -2.3206   25.2449 C   0  0  0  0  0  0
    9.5549   -1.8047   23.8277 C   0  0  0  0  0  0
    8.2057   -1.1465   23.4163 C   0  0  1  0  0  0
    7.7856   -1.8590   22.1312 C   0  0  0  0  0  0
    8.3227   -1.6727   19.6905 C   0  0  0  0  0  0
    8.0480   -2.7984   17.2160 C   0  0  0  0  0  0
   10.8262   -4.9170   18.5861 C   0  0  0  0  0  0
    9.2165   -2.6887   19.2914 C   0  0  0  0  0  0
    5.9138   -0.5431   24.3709 C   0  0  0  0  0  0
    7.2317   -2.9531   22.1416 O   0  0  0  0  0  0
    8.3298   -3.0219   25.5795 O   0  0  0  0  0  0
    7.0797   -1.3062   24.4213 C   0  0  0  0  0  0
    7.2067   -2.2488   25.4418 C   0  0  0  0  0  0
    6.2010   -2.4515   26.3758 C   0  0  0  0  0  0
    5.0374   -1.7088   26.2939 C   0  0  0  0  0  0
    4.9127   -0.7616   25.2981 C   0  0  0  0  0  0
    3.4617    0.1951   25.2162 Cl  0  0  0  0  0  0
    8.0693   -1.1980   20.9954 N   0  0  0  0  0  0
   10.2168   -3.2496   20.2713 C   0  0  0  0  0  0
   11.3144   -3.9720   19.6205 N   0  3  0  0  0  0
   10.1317   -4.1841   17.4602 C   0  0  0  0  0  0
    9.1029   -3.2184   17.9973 C   0  0  0  0  0  0
    7.3234   -1.3125   18.7887 C   0  0  0  0  0  0
    9.6709   -1.4881   25.9350 H   0  0  0  0  0  0
   10.3902   -2.9756   25.4044 H   0  0  0  0  0  0
    9.7803   -2.6254   23.1467 H   0  0  0  0  0  0
   10.3605   -1.0787   23.7184 H   0  0  0  0  0  0
    8.3640   -0.0878   23.2111 H   0  0  0  0  0  0
    7.9725   -3.2596   16.2423 H   0  0  0  0  0  0
   10.1331   -5.6254   19.0399 H   0  0  0  0  0  0
   11.6674   -5.4833   18.1860 H   0  0  0  0  0  0
    5.7966    0.2143   23.6099 H   0  0  0  0  0  0
    6.3307   -3.1844   27.1585 H   0  0  0  0  0  0
    4.2404   -1.8737   27.0039 H   0  0  0  0  0  0
    8.1277   -0.1896   20.9991 H   0  0  0  0  0  0
    9.7073   -3.9159   20.9674 H   0  0  0  0  0  0
   10.6247   -2.4395   20.8758 H   0  0  0  0  0  0
   11.9486   -3.3093   19.1976 H   0  0  0  0  0  0
   11.8421   -4.4791   20.3167 H   0  0  0  0  0  0
    9.6447   -4.9051   16.8037 H   0  0  0  0  0  0
   10.8700   -3.6382   16.8727 H   0  0  0  0  0  0
    6.6640   -0.5187   19.1072 H   0  0  0  0  0  0
  1  7  1  0  0  0
  1 24  2  0  0  0
  2  3  1  0  0  0
  2 12  1  0  0  0
  2 25  1  0  0  0
  2 26  1  0  0  0
  3  4  1  0  0  0
  3 27  1  0  0  0
  3 28  1  0  0  0
  4  5  1  0  0  0
  4 13  1  0  0  0
  4 29  1  0  0  0
  5 11  2  0  0  0
  5 19  1  0  0  0
  6  9  2  0  0  0
  6 19  1  0  0  0
  6 24  1  0  0  0
  7 23  2  0  0  0
  7 30  1  0  0  0
  8 21  1  0  0  0
  8 22  1  0  0  0
  8 31  1  0  0  0
  8 32  1  0  0  0
  9 20  1  0  0  0
  9 23  1  0  0  0
 10 13  1  0  0  0
 10 17  2  0  0  0
 10 33  1  0  0  0
 12 14  1  0  0  0
 13 14  2  0  0  0
 14 15  1  0  0  0
 15 16  2  0  0  0
 15 34  1  0  0  0
 16 17  1  0  0  0
 16 35  1  0  0  0
 17 18  1  0  0  0
 19 36  1  0  0  0
 20 21  1  0  0  0
 20 37  1  0  0  0
 20 38  1  0  0  0
 21 39  1  0  0  0
 21 40  1  0  0  0
 22 23  1  0  0  0
 22 41  1  0  0  0
 22 42  1  0  0  0
 24 43  1  0  0  0
M  CHG  1  21   1
M  END
> <s_m_entry_id>
1052

> <s_m_entry_name>
7ghy.pdb.1_A_ligand

> <s_pdb_PDB_TITLE>
GROUP DEPOSITION SARS-COV-2 MAIN PROTEASE IN COMPLEX WITH INHIBITORS FROM THE COVID MOONSHOT -- CRYSTAL STRUCTURE OF SARS-COV-2 MAIN PROTEASE IN COMPLEX WITH BEN-DND-C852C98B-10 (MPRO-P0031)

> <s_pdb_PDB_ID>
7GHY

> <s_m_Source_File>
7ghy.pdb.gz

> <s_user_Compound_ID>
BEN-DND-c852c98b-10

> <s_user_Monomer-Dimer>
Dimer

> <s_user_xcode>
Mpro-P0031

> <s_user_Ligands_in_both_active_sites>
YES

$$$$
