7GHZ_ligand
                    3D
 Schrodinger Suite 2021-2.
 43 46  0  0  1  0            999 V2000
    8.5750   -0.9702   20.7305 N   0  0  0  0  0  0
    8.0764   -1.4077   21.8997 C   0  0  0  0  0  0
    8.3937   -1.5425   19.4667 C   0  0  0  0  0  0
    7.2406   -1.3724   18.7038 C   0  0  0  0  0  0
    7.9275   -2.8148   17.0748 C   0  0  0  0  0  0
    9.1498   -3.0904   17.7344 C   0  0  0  0  0  0
   11.2898   -4.2008   17.9030 C   0  0  0  0  0  0
    9.3982   -2.4269   18.9684 C   0  0  0  0  0  0
    6.2594   -0.2617   24.3259 C   0  0  0  0  0  0
    5.7033   -1.5881   26.2590 C   0  0  0  0  0  0
    3.8198    0.1467   25.3890 Cl  0  0  0  0  0  0
    5.3812   -0.6242   25.3224 C   0  0  0  0  0  0
    6.9507   -2.1902   26.2089 C   0  0  0  0  0  0
    7.8577   -1.8376   25.2066 C   0  0  0  0  0  0
    9.1515   -2.3824   25.1595 N   0  0  0  0  0  0
    9.6071   -3.2905   26.2048 C   0  0  0  0  0  0
    7.5031   -0.8803   24.2436 C   0  0  0  0  0  0
    8.4406   -0.5367   23.1043 C   0  0  1  0  0  0
    9.9125   -0.7556   23.5200 C   0  0  0  0  0  0
   10.1068   -2.1621   24.0779 C   0  0  0  0  0  0
    7.3892   -2.4240   22.0037 O   0  0  0  0  0  0
   10.6254   -2.6836   19.6346 C   0  0  0  0  0  0
   11.5392   -3.5551   19.1109 C   0  0  0  0  0  0
   10.1236   -3.9841   17.2240 C   0  0  0  0  0  0
    6.9997   -1.9862   17.5349 N   0  0  0  0  0  0
    9.1509   -0.1406   20.7060 H   0  0  0  0  0  0
    6.4610   -0.7066   19.0443 H   0  0  0  0  0  0
    7.7022   -3.2930   16.1327 H   0  0  0  0  0  0
   12.0218   -4.8812   17.4931 H   0  0  0  0  0  0
    5.9816    0.4999   23.6122 H   0  0  0  0  0  0
    4.9865   -1.8638   27.0184 H   0  0  0  0  0  0
    7.2222   -2.9325   26.9450 H   0  0  0  0  0  0
   10.6298   -3.6042   25.9944 H   0  0  0  0  0  0
    9.5747   -2.7816   27.1685 H   0  0  0  0  0  0
    8.9580   -4.1658   26.2345 H   0  0  0  0  0  0
    8.3015    0.5110   22.8370 H   0  0  0  0  0  0
   10.1883   -0.0228   24.2786 H   0  0  0  0  0  0
   10.5590   -0.6165   22.6535 H   0  0  0  0  0  0
    9.9354   -2.8932   23.2875 H   0  0  0  0  0  0
   11.1216   -2.2629   24.4634 H   0  0  0  0  0  0
   10.8472   -2.1876   20.5682 H   0  0  0  0  0  0
   12.4611   -3.7409   19.6424 H   0  0  0  0  0  0
    9.9472   -4.5003   16.2917 H   0  0  0  0  0  0
  1  2  1  0  0  0
  1  3  1  0  0  0
  1 26  1  0  0  0
  2 18  1  0  0  0
  2 21  2  0  0  0
  3  4  2  0  0  0
  3  8  1  0  0  0
  4 25  1  0  0  0
  4 27  1  0  0  0
  5  6  1  0  0  0
  5 25  2  0  0  0
  5 28  1  0  0  0
  6  8  1  0  0  0
  6 24  2  0  0  0
  7 23  2  0  0  0
  7 24  1  0  0  0
  7 29  1  0  0  0
  8 22  2  0  0  0
  9 12  1  0  0  0
  9 17  2  0  0  0
  9 30  1  0  0  0
 10 12  2  0  0  0
 10 13  1  0  0  0
 10 31  1  0  0  0
 11 12  1  0  0  0
 13 14  2  0  0  0
 13 32  1  0  0  0
 14 15  1  0  0  0
 14 17  1  0  0  0
 15 16  1  0  0  0
 15 20  1  0  0  0
 16 33  1  0  0  0
 16 34  1  0  0  0
 16 35  1  0  0  0
 17 18  1  0  0  0
 18 19  1  0  0  0
 18 36  1  0  0  0
 19 20  1  0  0  0
 19 37  1  0  0  0
 19 38  1  0  0  0
 20 39  1  0  0  0
 20 40  1  0  0  0
 22 23  1  0  0  0
 22 41  1  0  0  0
 23 42  1  0  0  0
 24 43  1  0  0  0
M  END
> <s_m_entry_id>
1054

> <s_m_entry_name>
7ghz.pdb.1_A_ligand

> <s_pdb_PDB_TITLE>
GROUP DEPOSITION SARS-COV-2 MAIN PROTEASE IN COMPLEX WITH INHIBITORS FROM THE COVID MOONSHOT -- CRYSTAL STRUCTURE OF SARS-COV-2 MAIN PROTEASE IN COMPLEX WITH MIC-UNK-91ACBA05-6 (MPRO-P0033)

> <s_pdb_PDB_ID>
7GHZ

> <s_m_Source_File>
7ghz.pdb.gz

> <s_user_Compound_ID>
MIC-UNK-91acba05-6

> <s_user_Monomer-Dimer>
Dimer

> <s_user_xcode>
Mpro-P0033

> <s_user_Ligands_in_both_active_sites>
YES

$$$$
