7GI0_ligand
                    3D
 Schrodinger Suite 2021-2.
 40 43  0  0  1  0            999 V2000
    8.4508   -1.0355   20.9100 N   0  0  0  0  0  0
    9.7523   -2.5891   24.3961 C   0  0  0  0  0  0
    9.7778   -1.2082   23.7745 C   0  0  0  0  0  0
    8.3631   -0.7848   23.3200 C   0  0  1  0  0  0
    7.9645   -1.5506   22.0560 C   0  0  0  0  0  0
    8.2787   -1.5626   19.6173 C   0  0  0  0  0  0
    7.8601   -2.7220   17.1535 C   0  0  0  0  0  0
   11.2267   -4.1078   17.9613 C   0  0  0  0  0  0
   10.5156   -2.6959   19.7597 C   0  0  0  0  0  0
    7.3305   -1.0159   24.4088 C   0  0  0  0  0  0
    7.2787   -2.5696   22.0939 O   0  0  0  0  0  0
    8.7741   -2.6366   25.4804 N   0  0  0  0  0  0
    7.5731   -1.9599   25.4211 C   0  0  0  0  0  0
    6.5900   -2.2201   26.3803 C   0  0  0  0  0  0
    5.3753   -1.5545   26.3377 C   0  0  0  0  0  0
    6.1196   -0.3261   24.4059 C   0  0  0  0  0  0
    5.1601   -0.6133   25.3552 C   0  0  0  0  0  0
    3.6193    0.1988   25.2739 Cl  0  0  0  0  0  0
    9.3042   -2.4012   19.0822 C   0  0  0  0  0  0
   11.4442   -3.5332   19.2062 C   0  0  0  0  0  0
   10.0758   -3.8573   17.2715 C   0  0  0  0  0  0
    9.0836   -3.0012   17.8112 C   0  0  0  0  0  0
    6.9036   -1.9516   17.6544 N   0  0  0  0  0  0
    7.1207   -1.3949   18.8581 C   0  0  0  0  0  0
    8.9996   -0.1877   20.9303 H   0  0  0  0  0  0
   10.7408   -2.8292   24.7881 H   0  0  0  0  0  0
    9.4879   -3.3246   23.6361 H   0  0  0  0  0  0
   10.4497   -1.2091   22.9162 H   0  0  0  0  0  0
   10.1556   -0.4895   24.5021 H   0  0  0  0  0  0
    8.3820    0.2795   23.0852 H   0  0  0  0  0  0
    7.6605   -3.1472   16.1808 H   0  0  0  0  0  0
   11.9718   -4.7600   17.5299 H   0  0  0  0  0  0
   10.7144   -2.2569   20.7263 H   0  0  0  0  0  0
    9.0026   -3.1896   26.2942 H   0  0  0  0  0  0
    6.7751   -2.9435   27.1607 H   0  0  0  0  0  0
    4.6121   -1.7764   27.0689 H   0  0  0  0  0  0
    5.9321    0.4330   23.6607 H   0  0  0  0  0  0
   12.3544   -3.7460   19.7477 H   0  0  0  0  0  0
    9.9150   -4.3132   16.3055 H   0  0  0  0  0  0
    6.3151   -0.7791   19.2306 H   0  0  0  0  0  0
  1  5  1  0  0  0
  1  6  1  0  0  0
  1 25  1  0  0  0
  2  3  1  0  0  0
  2 12  1  0  0  0
  2 26  1  0  0  0
  2 27  1  0  0  0
  3  4  1  0  0  0
  3 28  1  0  0  0
  3 29  1  0  0  0
  4  5  1  0  0  0
  4 10  1  0  0  0
  4 30  1  0  0  0
  5 11  2  0  0  0
  6 19  1  0  0  0
  6 24  2  0  0  0
  7 22  1  0  0  0
  7 23  2  0  0  0
  7 31  1  0  0  0
  8 20  1  0  0  0
  8 21  2  0  0  0
  8 32  1  0  0  0
  9 19  1  0  0  0
  9 20  2  0  0  0
  9 33  1  0  0  0
 10 13  1  0  0  0
 10 16  2  0  0  0
 12 13  1  0  0  0
 12 34  1  0  0  0
 13 14  2  0  0  0
 14 15  1  0  0  0
 14 35  1  0  0  0
 15 17  2  0  0  0
 15 36  1  0  0  0
 16 17  1  0  0  0
 16 37  1  0  0  0
 17 18  1  0  0  0
 19 22  2  0  0  0
 20 38  1  0  0  0
 21 22  1  0  0  0
 21 39  1  0  0  0
 23 24  1  0  0  0
 24 40  1  0  0  0
M  END
> <s_m_entry_id>
1056

> <s_m_entry_name>
7gi0.pdb.1_A_ligand

> <s_pdb_PDB_TITLE>
GROUP DEPOSITION SARS-COV-2 MAIN PROTEASE IN COMPLEX WITH INHIBITORS FROM THE COVID MOONSHOT -- CRYSTAL STRUCTURE OF SARS-COV-2 MAIN PROTEASE IN COMPLEX WITH EDJ-MED-92E193AE-1 (MPRO-P0034)

> <s_pdb_PDB_ID>
7GI0

> <s_m_Source_File>
7gi0.pdb.gz

> <s_user_Compound_ID>
EDJ-MED-92e193ae-1

> <s_user_Monomer-Dimer>
Dimer

> <s_user_xcode>
Mpro-P0034

> <s_user_Ligands_in_both_active_sites>
YES

$$$$
