7GI1_ligand
                    3D
 Schrodinger Suite 2021-2.
 43 46  0  0  1  0            999 V2000
    6.8080   -1.8412   17.9970 N   0  0  0  0  0  0
    7.0162   -2.1770   25.9041 C   0  0  0  0  0  0
    5.9288   -2.3865   26.7377 C   0  0  0  0  0  0
    4.7326   -1.7508   26.4594 C   0  0  0  0  0  0
    4.6497   -0.9154   25.3655 C   0  0  0  0  0  0
    5.7118   -0.7309   24.5039 C   0  0  0  0  0  0
    7.7101   -1.7891   22.3848 C   0  0  0  0  0  0
    7.7940   -2.5326   17.4444 C   0  0  0  0  0  0
   10.0461   -3.5908   17.4852 C   0  0  0  0  0  0
   11.3921   -3.3814   19.4539 C   0  0  0  0  0  0
    6.9787   -2.7588   22.2538 O   0  0  0  0  0  0
    8.0757   -1.2592   23.7955 C   0  0  1  0  0  0
    6.9214   -1.3645   24.7680 C   0  0  0  0  0  0
    3.1979    0.0029   25.1109 Cl  0  0  0  0  0  0
    8.1997   -2.7165   26.3450 O   0  0  0  0  0  0
    9.3993   -2.2640   25.6852 C   0  0  0  0  0  0
    9.2482   -2.1720   24.1810 C   0  0  0  0  0  0
    8.5233    0.0753   23.5025 O   0  0  0  0  0  0
    8.0814    1.1308   24.3611 C   0  0  0  0  0  0
    8.2896   -1.1601   21.3389 N   0  0  0  0  0  0
    8.1570   -1.5622   19.9956 C   0  0  0  0  0  0
    9.2168   -2.3142   19.4019 C   0  0  0  0  0  0
   10.4335   -2.6221   20.0640 C   0  0  0  0  0  0
   11.1987   -3.8643   18.1651 C   0  0  0  0  0  0
    9.0247   -2.8134   18.0827 C   0  0  0  0  0  0
    6.9995   -1.3701   19.2401 C   0  0  0  0  0  0
    6.0218   -3.0400   27.5932 H   0  0  0  0  0  0
    3.8752   -1.9113   27.0964 H   0  0  0  0  0  0
    5.5989   -0.0993   23.6345 H   0  0  0  0  0  0
    7.6849   -2.9219   16.4431 H   0  0  0  0  0  0
    9.9077   -3.9685   16.4830 H   0  0  0  0  0  0
   12.3109   -3.6117   19.9734 H   0  0  0  0  0  0
   10.2214   -2.9383   25.9267 H   0  0  0  0  0  0
    9.6841   -1.2889   26.0801 H   0  0  0  0  0  0
   10.1691   -1.7823   23.7467 H   0  0  0  0  0  0
    9.0819   -3.1684   23.7722 H   0  0  0  0  0  0
    8.4981    2.0779   24.0174 H   0  0  0  0  0  0
    6.9927    1.1850   24.3409 H   0  0  0  0  0  0
    8.4162    0.9348   25.3801 H   0  0  0  0  0  0
    8.8629   -0.3434   21.4951 H   0  0  0  0  0  0
   10.5970   -2.2478   21.0636 H   0  0  0  0  0  0
   11.9707   -4.4609   17.7020 H   0  0  0  0  0  0
    6.2241   -0.7957   19.7249 H   0  0  0  0  0  0
  1  8  2  0  0  0
  1 26  1  0  0  0
  2  3  1  0  0  0
  2 13  2  0  0  0
  2 15  1  0  0  0
  3  4  2  0  0  0
  3 27  1  0  0  0
  4  5  1  0  0  0
  4 28  1  0  0  0
  5  6  2  0  0  0
  5 14  1  0  0  0
  6 13  1  0  0  0
  6 29  1  0  0  0
  7 11  2  0  0  0
  7 12  1  0  0  0
  7 20  1  0  0  0
  8 25  1  0  0  0
  8 30  1  0  0  0
  9 24  1  0  0  0
  9 25  2  0  0  0
  9 31  1  0  0  0
 10 23  1  0  0  0
 10 24  2  0  0  0
 10 32  1  0  0  0
 12 13  1  0  0  0
 12 17  1  0  0  0
 12 18  1  0  0  0
 15 16  1  0  0  0
 16 17  1  0  0  0
 16 33  1  0  0  0
 16 34  1  0  0  0
 17 35  1  0  0  0
 17 36  1  0  0  0
 18 19  1  0  0  0
 19 37  1  0  0  0
 19 38  1  0  0  0
 19 39  1  0  0  0
 20 21  1  0  0  0
 20 40  1  0  0  0
 21 22  1  0  0  0
 21 26  2  0  0  0
 22 23  2  0  0  0
 22 25  1  0  0  0
 23 41  1  0  0  0
 24 42  1  0  0  0
 26 43  1  0  0  0
M  END
> <s_m_entry_id>
1058

> <s_m_entry_name>
7gi1.pdb.1_A_ligand

> <s_pdb_PDB_TITLE>
GROUP DEPOSITION SARS-COV-2 MAIN PROTEASE IN COMPLEX WITH INHIBITORS FROM THE COVID MOONSHOT -- CRYSTAL STRUCTURE OF SARS-COV-2 MAIN PROTEASE IN COMPLEX WITH EDG-MED-0E5AFE9D-3 (MPRO-P0038)

> <s_pdb_PDB_ID>
7GI1

> <s_m_Source_File>
7gi1.pdb.gz

> <s_user_Compound_ID>
EDG-MED-0e5afe9d-3

> <s_user_Monomer-Dimer>
Dimer

> <s_user_xcode>
Mpro-P0038

> <s_user_Ligands_in_both_active_sites>
YES

$$$$
