7GI2_ligand
                    3D
 Schrodinger Suite 2021-2.
 45 48  0  0  1  0            999 V2000
    8.2066   -1.0789   21.0213 N   0  0  0  0  0  0
    7.2842   -2.0743   25.6015 C   0  0  0  0  0  0
    6.2688   -2.3052   26.5154 C   0  0  0  0  0  0
    5.0591   -1.6514   26.3663 C   0  0  0  0  0  0
    4.9025   -0.7485   25.3322 C   0  0  0  0  0  0
    5.9060   -0.5045   24.4186 C   0  0  0  0  0  0
    7.8892   -1.6584   22.1848 C   0  0  0  0  0  0
    7.8695   -2.7796   17.2809 C   0  0  0  0  0  0
   10.0997   -3.8744   17.4436 C   0  0  0  0  0  0
   11.4528   -3.4794   19.3773 C   0  0  0  0  0  0
    7.2298   -2.6900   22.1874 O   0  0  0  0  0  0
    8.2130   -0.9186   23.5032 C   0  0  1  0  0  0
    7.1155   -1.1831   24.5282 C   0  0  0  0  0  0
    3.4110    0.1396   25.1930 Cl  0  0  0  0  0  0
    8.4137   -2.8368   25.7784 O   0  0  0  0  0  0
    9.3939   -2.8150   24.7053 C   0  0  0  0  0  0
    9.5530   -1.4568   24.0582 C   0  0  0  0  0  0
    8.3275    0.6092   23.2756 C   0  0  0  0  0  0
    9.5411    1.0403   22.5821 N   0  3  0  0  0  0
    8.2732   -1.5053   19.6949 C   0  0  0  0  0  0
    9.2711   -2.4231   19.2364 C   0  0  0  0  0  0
   10.4913   -2.6718   19.9208 C   0  0  0  0  0  0
   11.2626   -4.0708   18.1371 C   0  0  0  0  0  0
    9.0732   -3.0538   17.9733 C   0  0  0  0  0  0
    6.9285   -1.9591   17.7216 N   0  0  0  0  0  0
    7.1541   -1.3297   18.8820 C   0  0  0  0  0  0
    8.4744   -0.1051   20.9980 H   0  0  0  0  0  0
    6.4259   -2.9910   27.3356 H   0  0  0  0  0  0
    4.2501   -1.8493   27.0543 H   0  0  0  0  0  0
    5.7505    0.2103   23.6233 H   0  0  0  0  0  0
    7.6738   -3.2525   16.3299 H   0  0  0  0  0  0
    9.9576   -4.3468   16.4829 H   0  0  0  0  0  0
   12.3722   -3.6624   19.9146 H   0  0  0  0  0  0
    9.1156   -3.5465   23.9468 H   0  0  0  0  0  0
   10.3585   -3.1484   25.0896 H   0  0  0  0  0  0
    9.9524   -0.7524   24.7878 H   0  0  0  0  0  0
   10.2801   -1.5236   23.2487 H   0  0  0  0  0  0
    8.2586    1.1224   24.2346 H   0  0  0  0  0  0
    7.4537    0.9588   22.7245 H   0  0  0  0  0  0
    9.5312    2.0452   22.4778 H   0  0  0  0  0  0
   10.3519    0.7654   23.1189 H   0  0  0  0  0  0
    9.5795    0.6085   21.6700 H   0  0  0  0  0  0
   10.6542   -2.2123   20.8845 H   0  0  0  0  0  0
   12.0426   -4.6908   17.7199 H   0  0  0  0  0  0
    6.3777   -0.6374   19.1731 H   0  0  0  0  0  0
  1  7  1  0  0  0
  1 20  1  0  0  0
  1 27  1  0  0  0
  2  3  1  0  0  0
  2 13  2  0  0  0
  2 15  1  0  0  0
  3  4  2  0  0  0
  3 28  1  0  0  0
  4  5  1  0  0  0
  4 29  1  0  0  0
  5  6  2  0  0  0
  5 14  1  0  0  0
  6 13  1  0  0  0
  6 30  1  0  0  0
  7 11  2  0  0  0
  7 12  1  0  0  0
  8 24  1  0  0  0
  8 25  2  0  0  0
  8 31  1  0  0  0
  9 23  1  0  0  0
  9 24  2  0  0  0
  9 32  1  0  0  0
 10 22  1  0  0  0
 10 23  2  0  0  0
 10 33  1  0  0  0
 12 13  1  0  0  0
 12 17  1  0  0  0
 12 18  1  0  0  0
 15 16  1  0  0  0
 16 17  1  0  0  0
 16 34  1  0  0  0
 16 35  1  0  0  0
 17 36  1  0  0  0
 17 37  1  0  0  0
 18 19  1  0  0  0
 18 38  1  0  0  0
 18 39  1  0  0  0
 19 40  1  0  0  0
 19 41  1  0  0  0
 19 42  1  0  0  0
 20 21  1  0  0  0
 20 26  2  0  0  0
 21 22  2  0  0  0
 21 24  1  0  0  0
 22 43  1  0  0  0
 23 44  1  0  0  0
 25 26  1  0  0  0
 26 45  1  0  0  0
M  CHG  1  19   1
M  END
> <s_m_entry_id>
1060

> <s_m_entry_name>
7gi2.pdb.1_A_ligand

> <s_pdb_PDB_TITLE>
GROUP DEPOSITION SARS-COV-2 MAIN PROTEASE IN COMPLEX WITH INHIBITORS FROM THE COVID MOONSHOT -- CRYSTAL STRUCTURE OF SARS-COV-2 MAIN PROTEASE IN COMPLEX WITH EDG-MED-971238D3-5 (MPRO-P0039)

> <s_pdb_PDB_ID>
7GI2

> <s_m_Source_File>
7gi2.pdb.gz

> <s_user_Compound_ID>
EDG-MED-971238d3-5

> <s_user_Monomer-Dimer>
Dimer

> <s_user_xcode>
Mpro-P0039

> <s_user_Ligands_in_both_active_sites>
YES

$$$$
