7GI4_ligand
                    3D
 Schrodinger Suite 2021-2.
 40 42  0  0  1  0            999 V2000
    8.5099   -1.2617   20.6760 N   0  0  0  0  0  0
    7.2020   -1.5368   18.6205 C   0  0  0  0  0  0
    8.3472   -1.7932   19.3763 C   0  0  0  0  0  0
    8.0000   -1.8532   21.7800 C   0  0  0  0  0  0
    8.2692   -1.1208   23.0783 C   0  0  0  0  0  0
    7.2346   -1.4465   24.1318 C   0  0  0  0  0  0
    5.3130   -0.8294   25.4238 C   0  0  0  0  0  0
    5.0522   -5.0103   26.2543 C   0  0  1  0  0  0
    4.9579   -7.0264   25.8296 C   0  0  0  0  0  0
    4.7871   -8.2309   25.6539 O   0  0  0  0  0  0
    5.0148   -5.7930   24.9377 C   0  0  0  0  0  0
    5.1818   -6.3072   26.9448 N   0  0  0  0  0  0
    6.2749   -4.2470   26.2668 O   0  0  0  0  0  0
    6.2423   -2.9964   25.6829 C   0  0  0  0  0  0
    5.2783   -2.0654   26.0377 C   0  0  0  0  0  0
    4.0858    0.3413   25.8146 Cl  0  0  0  0  0  0
    6.2688   -0.5084   24.4771 C   0  0  0  0  0  0
    7.2227   -2.6952   24.7467 C   0  0  0  0  0  0
    7.3778   -2.9138   21.7515 O   0  0  0  0  0  0
    9.3211   -2.6620   18.8523 C   0  0  0  0  0  0
   10.5883   -2.9872   19.6021 C   0  0  0  0  0  0
    6.9780   -2.0753   17.4151 N   0  0  0  0  0  0
    7.9087   -2.9065   16.9327 C   0  0  0  0  0  0
    9.0757   -3.2196   17.6019 C   0  0  0  0  0  0
    9.0259   -0.4037   20.8094 H   0  0  0  0  0  0
    6.4398   -0.8735   19.0023 H   0  0  0  0  0  0
    8.2737   -0.0462   22.8938 H   0  0  0  0  0  0
    9.2595   -1.3889   23.4477 H   0  0  0  0  0  0
    4.1484   -4.4467   26.4869 H   0  0  0  0  0  0
    6.0213   -5.7535   24.5205 H   0  0  0  0  0  0
    4.0157   -5.6598   24.5217 H   0  0  0  0  0  0
    5.3528   -6.7769   27.8230 H   0  0  0  0  0  0
    4.5153   -2.2835   26.7707 H   0  0  0  0  0  0
    6.2680    0.4644   24.0068 H   0  0  0  0  0  0
    7.9752   -3.4282   24.4954 H   0  0  0  0  0  0
   11.1938   -3.6756   19.0126 H   0  0  0  0  0  0
   11.1510   -2.0707   19.7799 H   0  0  0  0  0  0
   10.3379   -3.4508   20.5568 H   0  0  0  0  0  0
    7.7677   -3.3737   15.9694 H   0  0  0  0  0  0
    9.7958   -3.8928   17.1606 H   0  0  0  0  0  0
  1  3  1  0  0  0
  1  4  1  0  0  0
  1 25  1  0  0  0
  2  3  1  0  0  0
  2 22  2  0  0  0
  2 26  1  0  0  0
  3 20  2  0  0  0
  4  5  1  0  0  0
  4 19  2  0  0  0
  5  6  1  0  0  0
  5 27  1  0  0  0
  5 28  1  0  0  0
  6 17  1  0  0  0
  6 18  2  0  0  0
  7 15  1  0  0  0
  7 16  1  0  0  0
  7 17  2  0  0  0
  8 11  1  0  0  0
  8 12  1  0  0  0
  8 13  1  0  0  0
  8 29  1  0  0  0
  9 10  2  0  0  0
  9 11  1  0  0  0
  9 12  1  0  0  0
 11 30  1  0  0  0
 11 31  1  0  0  0
 12 32  1  0  0  0
 13 14  1  0  0  0
 14 15  2  0  0  0
 14 18  1  0  0  0
 15 33  1  0  0  0
 17 34  1  0  0  0
 18 35  1  0  0  0
 20 21  1  0  0  0
 20 24  1  0  0  0
 21 36  1  0  0  0
 21 37  1  0  0  0
 21 38  1  0  0  0
 22 23  1  0  0  0
 23 24  2  0  0  0
 23 39  1  0  0  0
 24 40  1  0  0  0
M  END
> <s_m_entry_id>
1062

> <s_m_entry_name>
7gi4.pdb.1_A_ligand

> <s_pdb_PDB_TITLE>
GROUP DEPOSITION SARS-COV-2 MAIN PROTEASE IN COMPLEX WITH INHIBITORS FROM THE COVID MOONSHOT -- CRYSTAL STRUCTURE OF SARS-COV-2 MAIN PROTEASE IN COMPLEX WITH TRY-UNI-2EDDB1FF-7 (MPRO-P0045)

> <s_pdb_PDB_ID>
7GI4

> <s_m_Source_File>
7gi4.pdb.gz

> <s_user_Compound_ID>
TRY-UNI-2eddb1ff-7

> <s_user_Monomer-Dimer>
Dimer

> <s_user_xcode>
Mpro-P0045

> <s_user_Ligands_in_both_active_sites>
YES

$$$$
