7GI5_ligand
                    3D
 Schrodinger Suite 2021-2.
 65 68  0  0  1  0            999 V2000
    9.4629   -3.3502   22.4007 N   0  0  0  0  0  0
    9.8052    4.1190   21.9430 N   0  0  0  0  0  0
    9.1403    0.1152   24.9207 C   0  0  0  0  0  0
    9.6438   -0.0156   23.6388 C   0  0  0  0  0  0
    8.7823   -0.0239   22.5435 C   0  0  0  0  0  0
    7.4096    0.1166   22.7481 C   0  0  0  0  0  0
    6.9047    0.2314   24.0335 C   0  0  0  0  0  0
    8.6371   -2.6611   21.6160 C   0  0  0  0  0  0
    7.9646   -4.8628   25.5676 C   0  0  0  0  0  0
    8.4066   -6.6400   27.1441 C   0  0  0  0  0  0
    6.1923   -6.1622   26.4866 C   0  0  0  0  0  0
    9.5830   -2.6984   18.4382 C   0  0  0  0  0  0
    9.0585   -3.0648   17.2098 C   0  0  0  0  0  0
    7.8685   -2.4930   16.8146 C   0  0  0  0  0  0
    9.9482    0.7416   20.5207 C   0  0  0  0  0  0
    9.5239    2.7917   22.0882 C   0  0  0  0  0  0
   10.6404    0.4687   19.5576 O   0  0  0  0  0  0
    9.9222    2.1836   20.9314 C   0  0  0  0  0  0
   10.4437    3.1373   20.0715 N   0  0  0  0  0  0
   10.3517    4.2808   20.7325 C   0  0  0  0  0  0
    9.3031   -0.2219   21.2236 N   0  0  0  0  0  0
    7.7710    0.2168   25.1194 C   0  0  0  0  0  0
    7.4628    0.2510   26.4647 O   0  0  0  0  0  0
    6.0860    0.4484   26.8951 C   0  0  0  0  0  0
    6.1997    1.1124   28.2472 C   0  0  0  0  0  0
    5.4223   -0.9029   26.9624 C   0  0  0  0  0  0
    9.3056   -1.6155   20.7052 C   0  0  2  0  0  0
    8.9070   -1.7984   19.2476 C   0  0  0  0  0  0
    7.7361   -1.2562   18.7349 C   0  0  0  0  0  0
    7.2082   -1.5902   17.5482 N   0  0  0  0  0  0
    7.4257   -2.8446   21.5853 O   0  0  0  0  0  0
    8.9786   -4.3848   23.3058 C   0  0  0  0  0  0
    8.4579   -3.7994   24.6142 C   0  0  0  0  0  0
    6.6055   -5.1424   25.6632 C   0  0  0  0  0  0
    4.8593   -6.4142   26.5776 F   0  0  0  0  0  0
    7.0529   -6.9294   27.2256 C   0  0  0  0  0  0
    8.8559   -5.6164   26.3219 C   0  0  0  0  0  0
   10.4545   -3.1617   22.3789 H   0  0  0  0  0  0
    9.5915    4.7659   22.6893 H   0  0  0  0  0  0
    9.8125    0.1382   25.7658 H   0  0  0  0  0  0
   10.7079   -0.1118   23.4843 H   0  0  0  0  0  0
    6.7372    0.1362   21.9032 H   0  0  0  0  0  0
    5.8411    0.3318   24.1884 H   0  0  0  0  0  0
    9.1166   -7.2125   27.7222 H   0  0  0  0  0  0
   10.5227   -3.1143   18.7694 H   0  0  0  0  0  0
    9.5802   -3.7802   16.5908 H   0  0  0  0  0  0
    7.4243   -2.7695   15.8695 H   0  0  0  0  0  0
    9.0715    2.4328   23.0007 H   0  0  0  0  0  0
   10.6568    5.2639   20.4053 H   0  0  0  0  0  0
    5.5583    1.0972   26.1961 H   0  0  0  0  0  0
    5.2030    1.2982   28.6465 H   0  0  0  0  0  0
    6.7472    0.4603   28.9277 H   0  0  0  0  0  0
    6.7310    2.0587   28.1449 H   0  0  0  0  0  0
    4.3878   -0.7837   27.2829 H   0  0  0  0  0  0
    5.4456   -1.3700   25.9772 H   0  0  0  0  0  0
    5.9526   -1.5339   27.6756 H   0  0  0  0  0  0
   10.3585   -1.8952   20.7216 H   0  0  0  0  0  0
    7.1907   -0.5158   19.3017 H   0  0  0  0  0  0
    9.7841   -5.0876   23.5183 H   0  0  0  0  0  0
    8.1837   -4.9495   22.8185 H   0  0  0  0  0  0
    9.2483   -3.2217   25.0936 H   0  0  0  0  0  0
    7.6499   -3.0995   24.4018 H   0  0  0  0  0  0
    5.8937   -4.5616   25.0955 H   0  0  0  0  0  0
    6.7105   -7.7364   27.8562 H   0  0  0  0  0  0
    9.9142   -5.4088   26.2729 H   0  0  0  0  0  0
  1  8  1  0  0  0
  1 32  1  0  0  0
  1 38  1  0  0  0
  2 16  1  0  0  0
  2 20  1  0  0  0
  2 39  1  0  0  0
  3  4  1  0  0  0
  3 22  2  0  0  0
  3 40  1  0  0  0
  4  5  2  0  0  0
  4 41  1  0  0  0
  5  6  1  0  0  0
  5 21  1  0  0  0
  6  7  2  0  0  0
  6 42  1  0  0  0
  7 22  1  0  0  0
  7 43  1  0  0  0
  8 27  1  0  0  0
  8 31  2  0  0  0
  9 33  1  0  0  0
  9 34  1  0  0  0
  9 37  2  0  0  0
 10 36  2  0  0  0
 10 37  1  0  0  0
 10 44  1  0  0  0
 11 34  2  0  0  0
 11 35  1  0  0  0
 11 36  1  0  0  0
 12 13  1  0  0  0
 12 28  2  0  0  0
 12 45  1  0  0  0
 13 14  2  0  0  0
 13 46  1  0  0  0
 14 30  1  0  0  0
 14 47  1  0  0  0
 15 17  2  0  0  0
 15 18  1  0  0  0
 15 21  1  0  0  0
 16 18  2  0  0  0
 16 48  1  0  0  0
 18 19  1  0  0  0
 19 20  2  0  0  0
 20 49  1  0  0  0
 21 27  1  0  0  0
 22 23  1  0  0  0
 23 24  1  0  0  0
 24 25  1  0  0  0
 24 26  1  0  0  0
 24 50  1  0  0  0
 25 51  1  0  0  0
 25 52  1  0  0  0
 25 53  1  0  0  0
 26 54  1  0  0  0
 26 55  1  0  0  0
 26 56  1  0  0  0
 27 28  1  0  0  0
 27 57  1  0  0  0
 28 29  1  0  0  0
 29 30  2  0  0  0
 29 58  1  0  0  0
 32 33  1  0  0  0
 32 59  1  0  0  0
 32 60  1  0  0  0
 33 61  1  0  0  0
 33 62  1  0  0  0
 34 63  1  0  0  0
 36 64  1  0  0  0
 37 65  1  0  0  0
M  END
> <s_m_entry_id>
1064

> <s_m_entry_name>
7gi5.pdb.1_A_ligand

> <s_pdb_PDB_TITLE>
GROUP DEPOSITION SARS-COV-2 MAIN PROTEASE IN COMPLEX WITH INHIBITORS FROM THE COVID MOONSHOT -- CRYSTAL STRUCTURE OF SARS-COV-2 MAIN PROTEASE IN COMPLEX WITH BRU-THA-92256091-17 (MPRO-P0053)

> <s_pdb_PDB_ID>
7GI5

> <s_m_Source_File>
7gi5.pdb.gz

> <s_user_Compound_ID>
BRU-THA-92256091-17

> <s_user_Monomer-Dimer>
Dimer

> <s_user_xcode>
Mpro-P0053

> <s_user_Ligands_in_both_active_sites>
NO

$$$$
