7GI6_ligand
                    3D
 Schrodinger Suite 2021-2.
 44 47  0  0  1  0            999 V2000
    8.9954   -2.4559   25.3474 N   0  0  0  0  0  0
    6.9288   -1.9077   17.5269 N   0  0  0  0  0  0
    7.9878   -1.4393   21.9730 C   0  0  0  0  0  0
    8.2643   -1.4821   19.5111 C   0  0  0  0  0  0
    7.1288   -1.3173   18.7165 C   0  0  0  0  0  0
    7.8799   -2.7158   17.0774 C   0  0  0  0  0  0
    9.0877   -2.9894   17.7688 C   0  0  0  0  0  0
   11.2385   -4.0744   17.9763 C   0  0  0  0  0  0
    9.2958   -2.3391   19.0187 C   0  0  0  0  0  0
    6.1672   -0.2679   24.3464 C   0  0  0  0  0  0
    5.5191   -1.5259   26.2943 C   0  0  0  0  0  0
    3.6563    0.1337   25.2504 Cl  0  0  0  0  0  0
    5.2397   -0.5988   25.3125 C   0  0  0  0  0  0
    6.7643   -2.1326   26.3181 C   0  0  0  0  0  0
    7.7151   -1.8252   25.3450 C   0  0  0  0  0  0
    9.3608   -3.2341   26.3982 C   0  0  0  0  0  0
   10.1021   -2.7513   27.2712 O   0  0  0  0  0  0
    8.9272   -4.5017   26.4006 N   0  0  0  0  0  0
    7.4125   -0.8963   24.3350 C   0  0  0  0  0  0
    8.3766   -0.6145   23.2006 C   0  0  1  0  0  0
    9.8213   -0.9135   23.6121 C   0  0  0  0  0  0
    9.9111   -2.3072   24.2033 C   0  0  0  0  0  0
    7.3430   -2.4868   22.0628 O   0  0  0  0  0  0
    8.4150   -0.9251   20.7953 N   0  0  0  0  0  0
   10.5160   -2.5810   19.7029 C   0  0  0  0  0  0
   11.4581   -3.4262   19.1850 C   0  0  0  0  0  0
   10.0845   -3.8673   17.2755 C   0  0  0  0  0  0
    6.3777   -0.6573   19.1248 H   0  0  0  0  0  0
    7.7601   -3.2145   16.1269 H   0  0  0  0  0  0
   11.9840   -4.7495   17.5824 H   0  0  0  0  0  0
    5.9284    0.4764   23.6010 H   0  0  0  0  0  0
    4.7710   -1.7717   27.0334 H   0  0  0  0  0  0
    7.0023   -2.8470   27.0924 H   0  0  0  0  0  0
    9.1737   -5.1183   27.1616 H   0  0  0  0  0  0
    8.3539   -4.8407   25.6413 H   0  0  0  0  0  0
    8.3042    0.4420   22.9421 H   0  0  0  0  0  0
   10.1464   -0.1831   24.3530 H   0  0  0  0  0  0
   10.4688   -0.8476   22.7378 H   0  0  0  0  0  0
    9.6594   -3.0426   23.4391 H   0  0  0  0  0  0
   10.9336   -2.4977   24.5297 H   0  0  0  0  0  0
    8.9045   -0.0417   20.7778 H   0  0  0  0  0  0
   10.7113   -2.0944   20.6472 H   0  0  0  0  0  0
   12.3796   -3.5877   19.7249 H   0  0  0  0  0  0
    9.9357   -4.3803   16.3368 H   0  0  0  0  0  0
  1 15  1  0  0  0
  1 16  1  0  0  0
  1 22  1  0  0  0
  2  5  1  0  0  0
  2  6  2  0  0  0
  3 20  1  0  0  0
  3 23  2  0  0  0
  3 24  1  0  0  0
  4  5  2  0  0  0
  4  9  1  0  0  0
  4 24  1  0  0  0
  5 28  1  0  0  0
  6  7  1  0  0  0
  6 29  1  0  0  0
  7  9  1  0  0  0
  7 27  2  0  0  0
  8 26  2  0  0  0
  8 27  1  0  0  0
  8 30  1  0  0  0
  9 25  2  0  0  0
 10 13  1  0  0  0
 10 19  2  0  0  0
 10 31  1  0  0  0
 11 13  2  0  0  0
 11 14  1  0  0  0
 11 32  1  0  0  0
 12 13  1  0  0  0
 14 15  2  0  0  0
 14 33  1  0  0  0
 15 19  1  0  0  0
 16 17  2  0  0  0
 16 18  1  0  0  0
 18 34  1  0  0  0
 18 35  1  0  0  0
 19 20  1  0  0  0
 20 21  1  0  0  0
 20 36  1  0  0  0
 21 22  1  0  0  0
 21 37  1  0  0  0
 21 38  1  0  0  0
 22 39  1  0  0  0
 22 40  1  0  0  0
 24 41  1  0  0  0
 25 26  1  0  0  0
 25 42  1  0  0  0
 26 43  1  0  0  0
 27 44  1  0  0  0
M  END
> <s_m_entry_id>
1066

> <s_m_entry_name>
7gi6.pdb.1_A_ligand

> <s_pdb_PDB_TITLE>
GROUP DEPOSITION SARS-COV-2 MAIN PROTEASE IN COMPLEX WITH INHIBITORS FROM THE COVID MOONSHOT -- CRYSTAL STRUCTURE OF SARS-COV-2 MAIN PROTEASE IN COMPLEX WITH RAL-THA-4AA06B95-1 (MPRO-P0056)

> <s_pdb_PDB_ID>
7GI6

> <s_m_Source_File>
7gi6.pdb.gz

> <s_user_Compound_ID>
RAL-THA-4aa06b95-1

> <s_user_Monomer-Dimer>
Dimer

> <s_user_xcode>
Mpro-P0056

> <s_user_Ligands_in_both_active_sites>
YES

$$$$
