7GI7_ligand
                    3D
 Schrodinger Suite 2021-2.
 54 57  0  0  1  0            999 V2000
    8.0969    0.6605   23.8834 N   0  0  0  0  0  0
    6.9177   -1.8595   17.6752 N   0  0  0  0  0  0
   10.3194   -0.2478   24.0880 C   0  0  0  0  0  0
    8.9660   -0.3581   23.8000 C   0  0  0  0  0  0
    8.5631    1.8541   24.2874 C   0  0  0  0  0  0
    8.2430   -2.6032   24.5214 C   0  0  0  0  0  0
    6.8682   -2.6255   25.1473 C   0  0  0  0  0  0
    5.0880   -3.8206   26.2567 C   0  0  0  0  0  0
    6.0560   -1.4949   25.1049 C   0  0  0  0  0  0
    8.2526   -0.9018   21.0985 C   0  0  0  0  0  0
    7.0837   -1.3099   18.8893 C   0  0  0  0  0  0
   10.0571   -3.8505   17.4831 C   0  0  0  0  0  0
   11.1677   -4.1096   18.2347 C   0  0  0  0  0  0
   11.3255   -3.5285   19.4854 C   0  0  0  0  0  0
    9.2034   -2.3757   19.2404 C   0  0  0  0  0  0
    7.4595   -2.9899   21.9424 O   0  0  0  0  0  0
    7.9828   -1.9111   22.2009 C   0  0  0  0  0  0
    8.1723   -1.5175   19.7185 C   0  0  0  0  0  0
   10.3746   -2.6820   19.9850 C   0  0  0  0  0  0
    9.0523   -2.9752   17.9597 C   0  0  0  0  0  0
    7.8738   -2.6707   17.2318 C   0  0  0  0  0  0
    8.3904   -1.5923   23.4637 N   0  0  0  0  0  0
   10.7782    0.9835   24.5127 C   0  0  0  0  0  0
    9.9010    2.0659   24.6172 C   0  0  0  0  0  0
   10.3446    3.3211   25.0261 N   0  0  0  0  0  0
   11.5719    3.4633   25.7912 C   0  0  0  0  0  0
    9.4292    4.4499   25.1239 C   0  0  0  0  0  0
    4.7567   -1.5686   25.5731 C   0  0  0  0  0  0
    3.6781   -0.2248   25.2880 Cl  0  0  0  0  0  0
    4.2755   -2.6976   26.1983 C   0  0  0  0  0  0
    6.3655   -3.7889   25.7169 C   0  0  0  0  0  0
   10.9673   -1.1050   23.9765 H   0  0  0  0  0  0
    7.8922    2.6971   24.3671 H   0  0  0  0  0  0
    8.4712   -3.5885   24.1150 H   0  0  0  0  0  0
    8.9905   -2.4287   25.2955 H   0  0  0  0  0  0
    4.7268   -4.7254   26.7240 H   0  0  0  0  0  0
    6.4417   -0.5669   24.7080 H   0  0  0  0  0  0
    9.2403   -0.4632   21.2426 H   0  0  0  0  0  0
    7.5357   -0.0837   21.1720 H   0  0  0  0  0  0
    6.3309   -0.6463   19.2887 H   0  0  0  0  0  0
    9.9394   -4.3153   16.5155 H   0  0  0  0  0  0
   11.9332   -4.7717   17.8575 H   0  0  0  0  0  0
   12.2058   -3.7435   20.0738 H   0  0  0  0  0  0
   10.5081   -2.2354   20.9591 H   0  0  0  0  0  0
    7.7767   -3.1408   16.2645 H   0  0  0  0  0  0
   11.8202    1.1135   24.7662 H   0  0  0  0  0  0
   11.7429    4.5172   26.0114 H   0  0  0  0  0  0
   11.4858    2.9062   26.7246 H   0  0  0  0  0  0
   12.4093    3.0735   25.2123 H   0  0  0  0  0  0
    9.9745    5.3322   25.4592 H   0  0  0  0  0  0
    8.9871    4.6467   24.1468 H   0  0  0  0  0  0
    8.6400    4.2170   25.8390 H   0  0  0  0  0  0
    3.2890   -2.7216   26.6378 H   0  0  0  0  0  0
    6.9712   -4.6831   25.7432 H   0  0  0  0  0  0
  1  4  1  0  0  0
  1  5  2  0  0  0
  2 11  1  0  0  0
  2 21  2  0  0  0
  3  4  2  0  0  0
  3 23  1  0  0  0
  3 32  1  0  0  0
  4 22  1  0  0  0
  5 24  1  0  0  0
  5 33  1  0  0  0
  6  7  1  0  0  0
  6 22  1  0  0  0
  6 34  1  0  0  0
  6 35  1  0  0  0
  7  9  1  0  0  0
  7 31  2  0  0  0
  8 30  2  0  0  0
  8 31  1  0  0  0
  8 36  1  0  0  0
  9 28  2  0  0  0
  9 37  1  0  0  0
 10 17  1  0  0  0
 10 18  1  0  0  0
 10 38  1  0  0  0
 10 39  1  0  0  0
 11 18  2  0  0  0
 11 40  1  0  0  0
 12 13  1  0  0  0
 12 20  2  0  0  0
 12 41  1  0  0  0
 13 14  2  0  0  0
 13 42  1  0  0  0
 14 19  1  0  0  0
 14 43  1  0  0  0
 15 18  1  0  0  0
 15 19  2  0  0  0
 15 20  1  0  0  0
 16 17  2  0  0  0
 17 22  1  0  0  0
 19 44  1  0  0  0
 20 21  1  0  0  0
 21 45  1  0  0  0
 23 24  2  0  0  0
 23 46  1  0  0  0
 24 25  1  0  0  0
 25 26  1  0  0  0
 25 27  1  0  0  0
 26 47  1  0  0  0
 26 48  1  0  0  0
 26 49  1  0  0  0
 27 50  1  0  0  0
 27 51  1  0  0  0
 27 52  1  0  0  0
 28 29  1  0  0  0
 28 30  1  0  0  0
 30 53  1  0  0  0
 31 54  1  0  0  0
M  END
> <s_m_entry_id>
1068

> <s_m_entry_name>
7gi7.pdb.1_A_ligand

> <s_pdb_PDB_TITLE>
GROUP DEPOSITION SARS-COV-2 MAIN PROTEASE IN COMPLEX WITH INHIBITORS FROM THE COVID MOONSHOT -- CRYSTAL STRUCTURE OF SARS-COV-2 MAIN PROTEASE IN COMPLEX WITH MAT-POS-6C284E65-1 (MPRO-P0057)

> <s_pdb_PDB_ID>
7GI7

> <s_m_Source_File>
7gi7.pdb.gz

> <s_user_Compound_ID>
MAT-POS-6c284e65-1

> <s_user_Monomer-Dimer>
Dimer

> <s_user_xcode>
Mpro-P0057

> <s_user_Ligands_in_both_active_sites>
YES

$$$$
