7GI8_ligand
                    3D
 Schrodinger Suite 2021-2.
 39 42  0  0  1  0            999 V2000
    8.4699   -1.0680   20.6990 N   0  0  0  0  0  0
    9.8117   -2.2969   24.2616 C   0  0  0  0  0  0
    9.6928   -0.9747   23.5584 C   0  0  0  0  0  0
    8.2710   -0.6477   23.0738 C   0  0  1  0  0  0
    7.9769   -1.5345   21.8644 C   0  0  0  0  0  0
    8.3038   -1.6372   19.4302 C   0  0  0  0  0  0
    7.8798   -2.8803   17.0165 C   0  0  0  0  0  0
   11.2540   -4.2339   17.8632 C   0  0  0  0  0  0
   10.5221   -2.7972   19.6334 C   0  0  0  0  0  0
    7.3151   -0.9048   24.2199 C   0  0  0  0  0  0
    7.3364   -2.5878   21.9589 O   0  0  0  0  0  0
   10.8062   -3.0056   24.1479 O   0  0  0  0  0  0
    8.7639   -2.6673   25.0275 N   0  0  0  0  0  0
    7.5534   -1.9724   25.0993 C   0  0  0  0  0  0
    6.6164   -2.2904   26.0844 C   0  0  0  0  0  0
    5.4472   -1.5549   26.1922 C   0  0  0  0  0  0
    6.1425   -0.1661   24.3522 C   0  0  0  0  0  0
    5.2224   -0.5116   25.3186 C   0  0  0  0  0  0
    3.7024    0.3376   25.3754 Cl  0  0  0  0  0  0
    9.3070   -2.5309   18.9494 C   0  0  0  0  0  0
   11.4647   -3.6293   19.0954 C   0  0  0  0  0  0
   10.0916   -4.0209   17.1747 C   0  0  0  0  0  0
    9.0874   -3.1688   17.6982 C   0  0  0  0  0  0
    6.9504   -2.0462   17.4638 N   0  0  0  0  0  0
    7.1714   -1.4453   18.6414 C   0  0  0  0  0  0
    9.0232   -0.2230   20.6870 H   0  0  0  0  0  0
   10.3774   -0.9538   22.7104 H   0  0  0  0  0  0
   10.0406   -0.1810   24.2199 H   0  0  0  0  0  0
    8.2165    0.4008   22.7806 H   0  0  0  0  0  0
    7.6689   -3.3522   16.0680 H   0  0  0  0  0  0
   12.0113   -4.8784   17.4412 H   0  0  0  0  0  0
   10.7129   -2.3400   20.5934 H   0  0  0  0  0  0
    8.8251   -3.4975   25.5996 H   0  0  0  0  0  0
    6.8031   -3.1100   26.7626 H   0  0  0  0  0  0
    4.7228   -1.8009   26.9546 H   0  0  0  0  0  0
    5.9566    0.6738   23.6991 H   0  0  0  0  0  0
   12.3800   -3.8145   19.6384 H   0  0  0  0  0  0
    9.9319   -4.5042   16.2219 H   0  0  0  0  0  0
    6.3931   -0.7713   18.9686 H   0  0  0  0  0  0
  1  5  1  0  0  0
  1  6  1  0  0  0
  1 26  1  0  0  0
  2  3  1  0  0  0
  2 12  2  0  0  0
  2 13  1  0  0  0
  3  4  1  0  0  0
  3 27  1  0  0  0
  3 28  1  0  0  0
  4  5  1  0  0  0
  4 10  1  0  0  0
  4 29  1  0  0  0
  5 11  2  0  0  0
  6 20  1  0  0  0
  6 25  2  0  0  0
  7 23  1  0  0  0
  7 24  2  0  0  0
  7 30  1  0  0  0
  8 21  1  0  0  0
  8 22  2  0  0  0
  8 31  1  0  0  0
  9 20  1  0  0  0
  9 21  2  0  0  0
  9 32  1  0  0  0
 10 14  1  0  0  0
 10 17  2  0  0  0
 13 14  1  0  0  0
 13 33  1  0  0  0
 14 15  2  0  0  0
 15 16  1  0  0  0
 15 34  1  0  0  0
 16 18  2  0  0  0
 16 35  1  0  0  0
 17 18  1  0  0  0
 17 36  1  0  0  0
 18 19  1  0  0  0
 20 23  2  0  0  0
 21 37  1  0  0  0
 22 23  1  0  0  0
 22 38  1  0  0  0
 24 25  1  0  0  0
 25 39  1  0  0  0
M  END
> <s_m_entry_id>
1070

> <s_m_entry_name>
7gi8.pdb.1_A_ligand

> <s_pdb_PDB_TITLE>
GROUP DEPOSITION SARS-COV-2 MAIN PROTEASE IN COMPLEX WITH INHIBITORS FROM THE COVID MOONSHOT -- CRYSTAL STRUCTURE OF SARS-COV-2 MAIN PROTEASE IN COMPLEX WITH MIC-UNK-45817B9B-1 (MPRO-P0060)

> <s_pdb_PDB_ID>
7GI8

> <s_m_Source_File>
7gi8.pdb.gz

> <s_user_Compound_ID>
MIC-UNK-45817b9b-1

> <s_user_Monomer-Dimer>
Dimer

> <s_user_xcode>
Mpro-P0060

> <s_user_Ligands_in_both_active_sites>
YES

$$$$
