7GI9_ligand
                    3D
 Schrodinger Suite 2021-2.
 34 36  0  0  1  0            999 V2000
    7.0686   -1.9903   17.5686 N   0  0  0  0  0  0
    7.2025   -0.8098   24.3499 C   0  0  0  0  0  0
    8.1059   -0.4920   23.1817 C   0  0  0  0  0  0
    7.8991   -1.3986   21.9851 C   0  0  0  0  0  0
    8.3773   -1.5331   19.5609 C   0  0  0  0  0  0
    7.2445   -1.3972   18.7578 C   0  0  0  0  0  0
    9.2610   -3.0006   17.8169 C   0  0  0  0  0  0
   11.5914   -3.4518   19.2891 C   0  0  0  0  0  0
    9.4363   -2.3624   19.0765 C   0  0  0  0  0  0
    7.2272   -2.4314   22.0577 O   0  0  0  0  0  0
    7.4918   -1.8449   25.2189 C   0  0  0  0  0  0
    8.6360   -2.5398   25.0191 F   0  0  0  0  0  0
    6.6524   -2.2323   26.2387 C   0  0  0  0  0  0
    5.4437   -1.5776   26.3900 C   0  0  0  0  0  0
    5.9821   -0.1574   24.5077 C   0  0  0  0  0  0
    5.1337   -0.5731   25.5070 C   0  0  0  0  0  0
    3.8930   -0.0159   25.5663 F   0  0  0  0  0  0
    8.4924   -0.9719   20.8488 N   0  0  0  0  0  0
   10.6347   -2.6156   19.7935 C   0  0  0  0  0  0
   11.4120   -4.0742   18.0634 C   0  0  0  0  0  0
   10.2774   -3.8624   17.3344 C   0  0  0  0  0  0
    8.0485   -2.7625   17.1189 C   0  0  0  0  0  0
    9.1461   -0.5488   23.5030 H   0  0  0  0  0  0
    7.9557    0.5448   22.8802 H   0  0  0  0  0  0
    6.4738   -0.7567   19.1611 H   0  0  0  0  0  0
   12.4986   -3.6333   19.8468 H   0  0  0  0  0  0
    6.9428   -3.0337   26.9021 H   0  0  0  0  0  0
    4.7722   -1.8610   27.1870 H   0  0  0  0  0  0
    5.7170    0.6587   23.8518 H   0  0  0  0  0  0
    9.0974   -0.1632   20.8680 H   0  0  0  0  0  0
   10.7854   -2.1372   20.7501 H   0  0  0  0  0  0
   12.1741   -4.7344   17.6762 H   0  0  0  0  0  0
   10.1579   -4.3583   16.3822 H   0  0  0  0  0  0
    7.9510   -3.2574   16.1638 H   0  0  0  0  0  0
  1  6  1  0  0  0
  1 22  2  0  0  0
  2  3  1  0  0  0
  2 11  1  0  0  0
  2 15  2  0  0  0
  3  4  1  0  0  0
  3 23  1  0  0  0
  3 24  1  0  0  0
  4 10  2  0  0  0
  4 18  1  0  0  0
  5  6  2  0  0  0
  5  9  1  0  0  0
  5 18  1  0  0  0
  6 25  1  0  0  0
  7  9  1  0  0  0
  7 21  2  0  0  0
  7 22  1  0  0  0
  8 19  1  0  0  0
  8 20  2  0  0  0
  8 26  1  0  0  0
  9 19  2  0  0  0
 11 12  1  0  0  0
 11 13  2  0  0  0
 13 14  1  0  0  0
 13 27  1  0  0  0
 14 16  2  0  0  0
 14 28  1  0  0  0
 15 16  1  0  0  0
 15 29  1  0  0  0
 16 17  1  0  0  0
 18 30  1  0  0  0
 19 31  1  0  0  0
 20 21  1  0  0  0
 20 32  1  0  0  0
 21 33  1  0  0  0
 22 34  1  0  0  0
M  END
> <s_m_entry_id>
1072

> <s_m_entry_name>
7gi9.pdb.1_A_ligand

> <s_pdb_PDB_TITLE>
GROUP DEPOSITION SARS-COV-2 MAIN PROTEASE IN COMPLEX WITH INHIBITORS FROM THE COVID MOONSHOT -- CRYSTAL STRUCTURE OF SARS-COV-2 MAIN PROTEASE IN COMPLEX WITH RAL-THA-2D450E86-26 (MPRO-P0061)

> <s_pdb_PDB_ID>
7GI9

> <s_m_Source_File>
7gi9.pdb.gz

> <s_user_Compound_ID>
RAL-THA-2d450e86-26

> <s_user_Monomer-Dimer>
Dimer

> <s_user_xcode>
Mpro-P0061

> <s_user_Ligands_in_both_active_sites>
YES

$$$$
