7GIA_ligand
                    3D
 Schrodinger Suite 2021-2.
 33 35  0  0  1  0            999 V2000
    7.0431   -2.0281   17.1774 N   0  0  0  0  0  0
    8.8761   -0.8324   22.7216 C   0  0  0  0  0  0
    8.3000   -1.5229   21.5041 C   0  0  0  0  0  0
    8.4915   -1.5062   19.0465 C   0  0  0  0  0  0
    7.3211   -1.3571   18.3031 C   0  0  0  0  0  0
    7.9459   -2.9004   16.7431 C   0  0  0  0  0  0
   10.1485   -4.0679   16.8850 C   0  0  0  0  0  0
   10.7432   -2.6104   19.1750 C   0  0  0  0  0  0
    7.0465   -1.5750   25.8028 C   0  0  0  0  0  0
    7.5789   -2.5183   21.6002 O   0  0  0  0  0  0
    7.8524   -0.7225   23.8221 C   0  0  0  0  0  0
    6.8618    0.2507   23.7885 C   0  0  0  0  0  0
    5.9439    0.2959   24.8201 C   0  0  0  0  0  0
    7.9446   -1.6307   24.8089 N   0  0  0  0  0  0
    6.0510   -0.6127   25.8424 C   0  0  0  0  0  0
    5.0009   -0.4724   27.2223 Cl  0  0  0  0  0  0
    8.6761   -0.9746   20.3300 N   0  0  0  0  0  0
    9.4829   -2.4095   18.5565 C   0  0  0  0  0  0
   11.6450   -3.4993   18.6620 C   0  0  0  0  0  0
   11.3458   -4.2327   17.5234 C   0  0  0  0  0  0
    9.1888   -3.1474   17.3780 C   0  0  0  0  0  0
    9.2198    0.1644   22.4448 H   0  0  0  0  0  0
    9.7381   -1.3936   23.0822 H   0  0  0  0  0  0
    6.6131   -0.6409   18.6945 H   0  0  0  0  0  0
    7.7543   -3.4773   15.8504 H   0  0  0  0  0  0
    9.9272   -4.6415   15.9970 H   0  0  0  0  0  0
   11.0017   -2.0563   20.0653 H   0  0  0  0  0  0
    7.0850   -2.2952   26.6067 H   0  0  0  0  0  0
    6.8213    0.9512   22.9675 H   0  0  0  0  0  0
    5.1588    1.0377   24.8128 H   0  0  0  0  0  0
    9.1476   -0.0814   20.3176 H   0  0  0  0  0  0
   12.6018   -3.6364   19.1434 H   0  0  0  0  0  0
   12.0688   -4.9392   17.1419 H   0  0  0  0  0  0
  1  5  1  0  0  0
  1  6  2  0  0  0
  2  3  1  0  0  0
  2 11  1  0  0  0
  2 22  1  0  0  0
  2 23  1  0  0  0
  3 10  2  0  0  0
  3 17  1  0  0  0
  4  5  2  0  0  0
  4 17  1  0  0  0
  4 18  1  0  0  0
  5 24  1  0  0  0
  6 21  1  0  0  0
  6 25  1  0  0  0
  7 20  1  0  0  0
  7 21  2  0  0  0
  7 26  1  0  0  0
  8 18  2  0  0  0
  8 19  1  0  0  0
  8 27  1  0  0  0
  9 14  1  0  0  0
  9 15  2  0  0  0
  9 28  1  0  0  0
 11 12  1  0  0  0
 11 14  2  0  0  0
 12 13  2  0  0  0
 12 29  1  0  0  0
 13 15  1  0  0  0
 13 30  1  0  0  0
 15 16  1  0  0  0
 17 31  1  0  0  0
 18 21  1  0  0  0
 19 20  2  0  0  0
 19 32  1  0  0  0
 20 33  1  0  0  0
M  END
> <s_m_entry_id>
1074

> <s_m_entry_name>
7gia.pdb.1_A_ligand

> <s_pdb_PDB_TITLE>
GROUP DEPOSITION SARS-COV-2 MAIN PROTEASE IN COMPLEX WITH INHIBITORS FROM THE COVID MOONSHOT -- CRYSTAL STRUCTURE OF SARS-COV-2 MAIN PROTEASE IN COMPLEX WITH RAL-THA-2D450E86-33 (MPRO-P0063)

> <s_pdb_PDB_ID>
7GIA

> <s_m_Source_File>
7gia.pdb.gz

> <s_user_Compound_ID>
RAL-THA-2d450e86-33

> <s_user_Monomer-Dimer>
Dimer

> <s_user_xcode>
Mpro-P0063

> <s_user_Ligands_in_both_active_sites>
YES

$$$$
