7GIB_ligand
                    3D
 Schrodinger Suite 2021-2.
 34 36  0  0  1  0            999 V2000
    6.9785   -1.9260   17.6701 N   0  0  0  0  0  0
    7.1418   -0.9208   24.4409 C   0  0  0  0  0  0
    8.1228   -0.6183   23.3310 C   0  0  0  0  0  0
    7.8856   -1.4626   22.0923 C   0  0  0  0  0  0
    8.3134   -1.5009   19.6570 C   0  0  0  0  0  0
    7.1657   -1.3587   18.8732 C   0  0  0  0  0  0
    9.1860   -2.9180   17.8619 C   0  0  0  0  0  0
   11.5261   -3.4140   19.3085 C   0  0  0  0  0  0
    9.3702   -2.3143   19.1385 C   0  0  0  0  0  0
    7.2326   -2.5070   22.1308 O   0  0  0  0  0  0
    7.4201   -1.8964   25.3943 C   0  0  0  0  0  0
    6.4878   -2.2272   26.3691 C   0  0  0  0  0  0
    5.2595   -1.5832   26.4087 C   0  0  0  0  0  0
    5.9199   -0.2563   24.4979 C   0  0  0  0  0  0
    5.0168   -0.6104   25.4709 C   0  0  0  0  0  0
    3.8098    0.0209   25.4853 F   0  0  0  0  0  0
    8.4416   -0.9769   20.9593 N   0  0  0  0  0  0
   10.5734   -2.5899   19.8413 C   0  0  0  0  0  0
   11.3431   -3.9929   18.0607 C   0  0  0  0  0  0
   10.2041   -3.7565   17.3438 C   0  0  0  0  0  0
    7.9612   -2.6746   17.1869 C   0  0  0  0  0  0
    9.1389   -0.7808   23.6911 H   0  0  0  0  0  0
    8.0574    0.4376   23.0678 H   0  0  0  0  0  0
    6.3938   -0.7374   19.3033 H   0  0  0  0  0  0
   12.4319   -3.6199   19.8599 H   0  0  0  0  0  0
    8.3717   -2.4075   25.3824 H   0  0  0  0  0  0
    6.7178   -2.9885   27.1000 H   0  0  0  0  0  0
    4.5323   -1.8531   27.1603 H   0  0  0  0  0  0
    5.6951    0.5230   23.7846 H   0  0  0  0  0  0
    9.0209   -0.1502   20.9953 H   0  0  0  0  0  0
   10.7305   -2.1382   20.8099 H   0  0  0  0  0  0
   12.1051   -4.6374   17.6474 H   0  0  0  0  0  0
   10.0838   -4.2156   16.3735 H   0  0  0  0  0  0
    7.8567   -3.1448   16.2201 H   0  0  0  0  0  0
  1  6  1  0  0  0
  1 21  2  0  0  0
  2  3  1  0  0  0
  2 11  1  0  0  0
  2 14  2  0  0  0
  3  4  1  0  0  0
  3 22  1  0  0  0
  3 23  1  0  0  0
  4 10  2  0  0  0
  4 17  1  0  0  0
  5  6  2  0  0  0
  5  9  1  0  0  0
  5 17  1  0  0  0
  6 24  1  0  0  0
  7  9  1  0  0  0
  7 20  2  0  0  0
  7 21  1  0  0  0
  8 18  1  0  0  0
  8 19  2  0  0  0
  8 25  1  0  0  0
  9 18  2  0  0  0
 11 12  2  0  0  0
 11 26  1  0  0  0
 12 13  1  0  0  0
 12 27  1  0  0  0
 13 15  2  0  0  0
 13 28  1  0  0  0
 14 15  1  0  0  0
 14 29  1  0  0  0
 15 16  1  0  0  0
 17 30  1  0  0  0
 18 31  1  0  0  0
 19 20  1  0  0  0
 19 32  1  0  0  0
 20 33  1  0  0  0
 21 34  1  0  0  0
M  END
> <s_m_entry_id>
1076

> <s_m_entry_name>
7gib.pdb.1_A_ligand

> <s_pdb_PDB_TITLE>
GROUP DEPOSITION SARS-COV-2 MAIN PROTEASE IN COMPLEX WITH INHIBITORS FROM THE COVID MOONSHOT -- CRYSTAL STRUCTURE OF SARS-COV-2 MAIN PROTEASE IN COMPLEX WITH RAL-THA-2D450E86-10 (MPRO-P0064)

> <s_pdb_PDB_ID>
7GIB

> <s_m_Source_File>
7gib.pdb.gz

> <s_user_Compound_ID>
RAL-THA-2d450e86-10

> <s_user_Monomer-Dimer>
Dimer

> <s_user_xcode>
Mpro-P0064

> <s_user_Ligands_in_both_active_sites>
YES

$$$$
