7GIC_ligand
                    3D
 Schrodinger Suite 2021-2.
 37 39  0  0  1  0            999 V2000
    7.0952   -1.9832   17.2962 N   0  0  0  0  0  0
    8.4121   -1.5633   25.1709 C   0  0  0  0  0  0
    7.8625   -0.8093   24.1419 C   0  0  0  0  0  0
    8.6424   -0.5256   22.8767 C   0  0  0  0  0  0
    8.1671   -1.3249   21.6779 C   0  0  0  0  0  0
    8.5037   -1.5257   19.2230 C   0  0  0  0  0  0
    8.0127   -2.8252   16.8405 C   0  0  0  0  0  0
   11.3718   -4.2198   17.6572 C   0  0  0  0  0  0
   10.7344   -2.6776   19.3761 C   0  0  0  0  0  0
    6.5508   -0.3678   24.2688 C   0  0  0  0  0  0
    7.3665   -2.2521   21.7917 O   0  0  0  0  0  0
    7.6544   -1.8996   26.2813 C   0  0  0  0  0  0
    6.3373   -1.4811   26.3699 C   0  0  0  0  0  0
    5.7720   -0.6933   25.3706 C   0  0  0  0  0  0
    4.3639   -0.1687   25.5001 C   0  0  0  0  0  0
    8.6984   -0.9400   20.4964 N   0  0  0  0  0  0
    9.5006   -2.4216   18.7224 C   0  0  0  0  0  0
   11.6391   -3.5557   18.8475 C   0  0  0  0  0  0
   10.2021   -4.0047   16.9891 C   0  0  0  0  0  0
    9.2370   -3.1004   17.4960 C   0  0  0  0  0  0
    7.3514   -1.3554   18.4527 C   0  0  0  0  0  0
    9.4388   -1.8930   25.1101 H   0  0  0  0  0  0
    9.6994   -0.7279   23.0504 H   0  0  0  0  0  0
    8.5853    0.5386   22.6476 H   0  0  0  0  0  0
    7.8483   -3.3525   15.9123 H   0  0  0  0  0  0
   12.0934   -4.9140   17.2524 H   0  0  0  0  0  0
   10.9685   -2.1758   20.3035 H   0  0  0  0  0  0
    6.1106    0.2465   23.4971 H   0  0  0  0  0  0
    8.0913   -2.4869   27.0755 H   0  0  0  0  0  0
    5.7364   -1.7657   27.2211 H   0  0  0  0  0  0
    3.9233   -0.5345   26.4276 H   0  0  0  0  0  0
    4.3813    0.9213   25.5118 H   0  0  0  0  0  0
    3.7680   -0.5130   24.6547 H   0  0  0  0  0  0
    9.3176   -0.1430   20.4568 H   0  0  0  0  0  0
   12.5702   -3.7306   19.3663 H   0  0  0  0  0  0
   10.0046   -4.5264   16.0642 H   0  0  0  0  0  0
    6.6362   -0.6540   18.8564 H   0  0  0  0  0  0
  1  7  1  0  0  0
  1 21  2  0  0  0
  2  3  1  0  0  0
  2 12  2  0  0  0
  2 22  1  0  0  0
  3  4  1  0  0  0
  3 10  2  0  0  0
  4  5  1  0  0  0
  4 23  1  0  0  0
  4 24  1  0  0  0
  5 11  2  0  0  0
  5 16  1  0  0  0
  6 16  1  0  0  0
  6 17  2  0  0  0
  6 21  1  0  0  0
  7 20  2  0  0  0
  7 25  1  0  0  0
  8 18  1  0  0  0
  8 19  2  0  0  0
  8 26  1  0  0  0
  9 17  1  0  0  0
  9 18  2  0  0  0
  9 27  1  0  0  0
 10 14  1  0  0  0
 10 28  1  0  0  0
 12 13  1  0  0  0
 12 29  1  0  0  0
 13 14  2  0  0  0
 13 30  1  0  0  0
 14 15  1  0  0  0
 15 31  1  0  0  0
 15 32  1  0  0  0
 15 33  1  0  0  0
 16 34  1  0  0  0
 17 20  1  0  0  0
 18 35  1  0  0  0
 19 20  1  0  0  0
 19 36  1  0  0  0
 21 37  1  0  0  0
M  END
> <s_m_entry_id>
1078

> <s_m_entry_name>
7gic.pdb.1_A_ligand

> <s_pdb_PDB_TITLE>
GROUP DEPOSITION SARS-COV-2 MAIN PROTEASE IN COMPLEX WITH INHIBITORS FROM THE COVID MOONSHOT -- CRYSTAL STRUCTURE OF SARS-COV-2 MAIN PROTEASE IN COMPLEX WITH RAL-THA-2D450E86-13 (MPRO-P0065)

> <s_pdb_PDB_ID>
7GIC

> <s_m_Source_File>
7gic.pdb.gz

> <s_user_Compound_ID>
RAL-THA-2d450e86-13

> <s_user_Monomer-Dimer>
Dimer

> <s_user_xcode>
Mpro-P0065

> <s_user_Ligands_in_both_active_sites>
YES

$$$$
