7GID_ligand
                    3D
 Schrodinger Suite 2021-2.
 34 36  0  0  1  0            999 V2000
    6.8764   -1.8561   17.6013 N   0  0  0  0  0  0
    5.1816   -0.6736   25.4891 C   0  0  0  0  0  0
    5.5695   -1.6309   26.4081 C   0  0  0  0  0  0
    6.8435   -2.1597   26.3517 C   0  0  0  0  0  0
    7.7241   -1.7505   25.3591 C   0  0  0  0  0  0
    8.2538   -1.4906   19.5698 C   0  0  0  0  0  0
    7.8215   -2.6387   17.1003 C   0  0  0  0  0  0
   11.2243   -3.9762   17.8581 C   0  0  0  0  0  0
   10.5241   -2.5695   19.6636 C   0  0  0  0  0  0
    7.3227   -2.4545   22.1513 O   0  0  0  0  0  0
    7.9493   -1.3993   22.0357 C   0  0  0  0  0  0
    8.4380   -0.9409   20.8576 N   0  0  0  0  0  0
    9.2815   -2.3212   19.0218 C   0  0  0  0  0  0
   11.4663   -3.3727   19.0852 C   0  0  0  0  0  0
   10.0466   -3.7648   17.1971 C   0  0  0  0  0  0
    9.0490   -2.9245   17.7526 C   0  0  0  0  0  0
    7.0992   -1.3088   18.8062 C   0  0  0  0  0  0
    8.2240   -0.5013   23.2263 C   0  0  0  0  0  0
    7.3337   -0.8171   24.4054 C   0  0  0  0  0  0
    6.0643   -0.2606   24.5021 C   0  0  0  0  0  0
    4.1907   -0.2467   25.5394 H   0  0  0  0  0  0
    4.8765   -1.9628   27.1671 H   0  0  0  0  0  0
    7.1568   -2.8929   27.0804 H   0  0  0  0  0  0
    8.7237   -2.1579   25.3224 H   0  0  0  0  0  0
    7.6816   -3.1051   16.1361 H   0  0  0  0  0  0
   11.9706   -4.6203   17.4165 H   0  0  0  0  0  0
   10.7356   -2.1208   20.6230 H   0  0  0  0  0  0
    8.9922   -0.1047   20.9753 H   0  0  0  0  0  0
   12.4062   -3.5363   19.5916 H   0  0  0  0  0  0
    9.8699   -4.2396   16.2432 H   0  0  0  0  0  0
    6.3524   -0.6713   19.2563 H   0  0  0  0  0  0
    8.0838    0.5398   22.9350 H   0  0  0  0  0  0
    9.2681   -0.6024   23.5232 H   0  0  0  0  0  0
    5.7677    0.5021   23.7972 H   0  0  0  0  0  0
  1  7  1  0  0  0
  1 17  2  0  0  0
  2  3  1  0  0  0
  2 20  2  0  0  0
  2 21  1  0  0  0
  3  4  2  0  0  0
  3 22  1  0  0  0
  4  5  1  0  0  0
  4 23  1  0  0  0
  5 19  2  0  0  0
  5 24  1  0  0  0
  6 12  1  0  0  0
  6 13  2  0  0  0
  6 17  1  0  0  0
  7 16  2  0  0  0
  7 25  1  0  0  0
  8 14  1  0  0  0
  8 15  2  0  0  0
  8 26  1  0  0  0
  9 13  1  0  0  0
  9 14  2  0  0  0
  9 27  1  0  0  0
 10 11  2  0  0  0
 11 12  1  0  0  0
 11 18  1  0  0  0
 12 28  1  0  0  0
 13 16  1  0  0  0
 14 29  1  0  0  0
 15 16  1  0  0  0
 15 30  1  0  0  0
 17 31  1  0  0  0
 18 19  1  0  0  0
 18 32  1  0  0  0
 18 33  1  0  0  0
 19 20  1  0  0  0
 20 34  1  0  0  0
M  END
> <s_m_entry_id>
1080

> <s_m_entry_name>
7gid.pdb.1_A_ligand

> <s_pdb_PDB_TITLE>
GROUP DEPOSITION SARS-COV-2 MAIN PROTEASE IN COMPLEX WITH INHIBITORS FROM THE COVID MOONSHOT -- CRYSTAL STRUCTURE OF SARS-COV-2 MAIN PROTEASE IN COMPLEX WITH RAL-THA-2D450E86-1 (MPRO-P0066)

> <s_pdb_PDB_ID>
7GID

> <s_m_Source_File>
7gid.pdb.gz

> <s_user_Compound_ID>
RAL-THA-2d450e86-1

> <s_user_Monomer-Dimer>
Dimer

> <s_user_xcode>
Mpro-P0066

> <s_user_Ligands_in_both_active_sites>
YES

$$$$
