7GIE_ligand
                    3D
 Schrodinger Suite 2021-2.
 35 37  0  0  1  0            999 V2000
    7.1081   -1.9162   16.9876 N   0  0  0  0  0  0
    8.2277   -1.4978   21.5565 C   0  0  0  0  0  0
    8.2634   -1.3517   19.0459 C   0  0  0  0  0  0
    7.2594   -1.1805   18.0946 C   0  0  0  0  0  0
    8.0083   -2.8554   16.7508 C   0  0  0  0  0  0
    9.1315   -3.1042   17.5685 C   0  0  0  0  0  0
   11.2983   -4.1018   17.9565 C   0  0  0  0  0  0
    9.2756   -2.3249   18.7534 C   0  0  0  0  0  0
    7.3528   -1.7424   26.1096 C   0  0  0  0  0  0
    6.0616   -1.2246   26.1641 C   0  0  0  0  0  0
    8.1984   -3.1996   28.0580 N   0  0  0  0  0  0
    7.8428   -2.5539   27.1914 C   0  0  0  0  0  0
    5.5998   -0.4805   25.1001 C   0  0  0  0  0  0
    3.9862    0.1748   25.1623 Cl  0  0  0  0  0  0
    8.1543   -1.5125   24.9936 C   0  0  0  0  0  0
    7.6676   -0.7705   23.9226 C   0  0  0  0  0  0
    6.3806   -0.2453   23.9856 C   0  0  0  0  0  0
    8.5259   -0.5446   22.6986 C   0  0  0  0  0  0
    8.0811   -2.7088   21.7383 O   0  0  0  0  0  0
    8.0513   -0.8893   20.3622 N   0  0  0  0  0  0
   10.4785   -2.4623   19.4957 C   0  0  0  0  0  0
   11.4593   -3.3246   19.0950 C   0  0  0  0  0  0
   10.1653   -4.0037   17.2032 C   0  0  0  0  0  0
    6.5693   -0.3775   18.3079 H   0  0  0  0  0  0
    7.9090   -3.4923   15.8840 H   0  0  0  0  0  0
   12.0742   -4.7921   17.6598 H   0  0  0  0  0  0
    5.4420   -1.4090   27.0293 H   0  0  0  0  0  0
    9.1575   -1.9112   24.9580 H   0  0  0  0  0  0
    5.9915    0.3439   23.1682 H   0  0  0  0  0  0
    8.4016    0.4823   22.3544 H   0  0  0  0  0  0
    9.5774   -0.6278   22.9740 H   0  0  0  0  0  0
    7.7115    0.0612   20.3250 H   0  0  0  0  0  0
   10.6291   -1.8798   20.3928 H   0  0  0  0  0  0
   12.3676   -3.3978   19.6749 H   0  0  0  0  0  0
   10.0595   -4.6188   16.3217 H   0  0  0  0  0  0
  1  4  1  0  0  0
  1  5  2  0  0  0
  2 18  1  0  0  0
  2 19  2  0  0  0
  2 20  1  0  0  0
  3  4  2  0  0  0
  3  8  1  0  0  0
  3 20  1  0  0  0
  4 24  1  0  0  0
  5  6  1  0  0  0
  5 25  1  0  0  0
  6  8  1  0  0  0
  6 23  2  0  0  0
  7 22  2  0  0  0
  7 23  1  0  0  0
  7 26  1  0  0  0
  8 21  2  0  0  0
  9 10  1  0  0  0
  9 12  1  0  0  0
  9 15  2  0  0  0
 10 13  2  0  0  0
 10 27  1  0  0  0
 11 12  3  0  0  0
 13 14  1  0  0  0
 13 17  1  0  0  0
 15 16  1  0  0  0
 15 28  1  0  0  0
 16 17  2  0  0  0
 16 18  1  0  0  0
 17 29  1  0  0  0
 18 30  1  0  0  0
 18 31  1  0  0  0
 20 32  1  0  0  0
 21 22  1  0  0  0
 21 33  1  0  0  0
 22 34  1  0  0  0
 23 35  1  0  0  0
M  END
> <s_m_entry_id>
1082

> <s_m_entry_name>
7gie.pdb.1_A_ligand

> <s_pdb_PDB_TITLE>
GROUP DEPOSITION SARS-COV-2 MAIN PROTEASE IN COMPLEX WITH INHIBITORS FROM THE COVID MOONSHOT -- CRYSTAL STRUCTURE OF SARS-COV-2 MAIN PROTEASE IN COMPLEX WITH RAL-THA-2D450E86-17 (MPRO-P0068)

> <s_pdb_PDB_ID>
7GIE

> <s_m_Source_File>
7gie.pdb.gz

> <s_user_Compound_ID>
RAL-THA-2d450e86-17

> <s_user_Monomer-Dimer>
Dimer

> <s_user_xcode>
Mpro-P0068

> <s_user_Ligands_in_both_active_sites>
NO

$$$$
