7GIF_ligand
                    3D
 Schrodinger Suite 2021-2.
 34 36  0  0  1  0            999 V2000
    7.0796   -1.9646   17.3881 N   0  0  0  0  0  0
    8.4026   -0.4745   22.9325 C   0  0  0  0  0  0
    8.0982   -1.3527   21.7383 C   0  0  0  0  0  0
    8.4737   -1.4790   19.3083 C   0  0  0  0  0  0
    7.3158   -1.3333   18.5456 C   0  0  0  0  0  0
    8.0212   -2.7820   16.9316 C   0  0  0  0  0  0
   10.2402   -3.9119   17.0834 C   0  0  0  0  0  0
   10.7262   -2.5845   19.4757 C   0  0  0  0  0  0
    7.8214   -1.7240   25.0465 C   0  0  0  0  0  0
    7.4162   -2.3744   21.8317 O   0  0  0  0  0  0
    7.4928   -0.7530   24.1072 C   0  0  0  0  0  0
    6.3076   -0.0497   24.2677 C   0  0  0  0  0  0
    5.4618   -0.3053   25.3329 C   0  0  0  0  0  0
    6.9889   -1.9911   26.1206 C   0  0  0  0  0  0
    5.8305   -1.2677   26.2356 C   0  0  0  0  0  0
    5.0460   -1.4690   27.3258 F   0  0  0  0  0  0
    8.6357   -0.9174   20.5816 N   0  0  0  0  0  0
    9.4921   -2.3502   18.8125 C   0  0  0  0  0  0
   11.6519   -3.4468   18.9571 C   0  0  0  0  0  0
   11.4072   -4.1128   17.7631 C   0  0  0  0  0  0
    9.2526   -3.0265   17.5866 C   0  0  0  0  0  0
    8.3122    0.5733   22.6439 H   0  0  0  0  0  0
    9.4397   -0.6211   23.2343 H   0  0  0  0  0  0
    6.5800   -0.6537   18.9502 H   0  0  0  0  0  0
    7.8723   -3.3118   16.0028 H   0  0  0  0  0  0
   10.0621   -4.4296   16.1529 H   0  0  0  0  0  0
   10.9443   -2.0780   20.4038 H   0  0  0  0  0  0
    8.7393   -2.2846   24.9451 H   0  0  0  0  0  0
    6.0313    0.7129   23.5538 H   0  0  0  0  0  0
    4.5396    0.2480   25.4352 H   0  0  0  0  0  0
    7.2601   -2.7517   26.8386 H   0  0  0  0  0  0
    9.2291   -0.0998   20.5756 H   0  0  0  0  0  0
   12.5837   -3.6157   19.4763 H   0  0  0  0  0  0
   12.1494   -4.7942   17.3734 H   0  0  0  0  0  0
  1  5  1  0  0  0
  1  6  2  0  0  0
  2  3  1  0  0  0
  2 11  1  0  0  0
  2 22  1  0  0  0
  2 23  1  0  0  0
  3 10  2  0  0  0
  3 17  1  0  0  0
  4  5  2  0  0  0
  4 17  1  0  0  0
  4 18  1  0  0  0
  5 24  1  0  0  0
  6 21  1  0  0  0
  6 25  1  0  0  0
  7 20  1  0  0  0
  7 21  2  0  0  0
  7 26  1  0  0  0
  8 18  2  0  0  0
  8 19  1  0  0  0
  8 27  1  0  0  0
  9 11  1  0  0  0
  9 14  2  0  0  0
  9 28  1  0  0  0
 11 12  2  0  0  0
 12 13  1  0  0  0
 12 29  1  0  0  0
 13 15  2  0  0  0
 13 30  1  0  0  0
 14 15  1  0  0  0
 14 31  1  0  0  0
 15 16  1  0  0  0
 17 32  1  0  0  0
 18 21  1  0  0  0
 19 20  2  0  0  0
 19 33  1  0  0  0
 20 34  1  0  0  0
M  END
> <s_m_entry_id>
1084

> <s_m_entry_name>
7gif.pdb.1_A_ligand

> <s_pdb_PDB_TITLE>
GROUP DEPOSITION SARS-COV-2 MAIN PROTEASE IN COMPLEX WITH INHIBITORS FROM THE COVID MOONSHOT -- CRYSTAL STRUCTURE OF SARS-COV-2 MAIN PROTEASE IN COMPLEX WITH RAL-THA-2D450E86-7 (MPRO-P0069)

> <s_pdb_PDB_ID>
7GIF

> <s_m_Source_File>
7gif.pdb.gz

> <s_user_Compound_ID>
RAL-THA-2d450e86-7

> <s_user_Monomer-Dimer>
Dimer

> <s_user_xcode>
Mpro-P0069

> <s_user_Ligands_in_both_active_sites>
YES

$$$$
