7GIG_ligand
                    3D
 Schrodinger Suite 2021-2.
 35 37  0  0  1  0            999 V2000
    8.5052   -1.2614   20.6115 N   0  0  0  0  0  0
    6.9196   -2.1637   26.2780 C   0  0  0  0  0  0
    5.7233   -1.4672   26.3151 C   0  0  0  0  0  0
    5.3878   -0.6189   25.2625 C   0  0  0  0  0  0
    4.0688   -0.0369   25.1960 C   0  0  0  0  0  0
    6.2773   -0.4362   24.2026 C   0  0  0  0  0  0
    7.3164   -1.5544   18.4625 C   0  0  0  0  0  0
   10.3238   -4.0495   17.0337 C   0  0  0  0  0  0
   11.5292   -3.8491   19.0944 C   0  0  0  0  0  0
    9.4235   -2.6695   18.8468 C   0  0  0  0  0  0
    3.0124    0.3987   25.1583 N   0  0  0  0  0  0
    7.7854   -2.0060   25.2047 C   0  0  0  0  0  0
    7.4779   -1.1397   24.1611 C   0  0  0  0  0  0
    8.4236   -0.9588   22.9963 C   0  0  0  0  0  0
    8.0312   -1.7626   21.7720 C   0  0  0  0  0  0
    7.3625   -2.7918   21.8523 O   0  0  0  0  0  0
    8.3891   -1.8030   19.3185 C   0  0  0  0  0  0
   10.5676   -3.0264   19.6114 C   0  0  0  0  0  0
   11.4092   -4.3577   17.8055 C   0  0  0  0  0  0
    9.3010   -3.2017   17.5331 C   0  0  0  0  0  0
    8.1537   -2.8471   16.7874 C   0  0  0  0  0  0
    7.1873   -2.0598   17.2318 N   0  0  0  0  0  0
    9.0159   -0.3900   20.6092 H   0  0  0  0  0  0
    7.1810   -2.8317   27.0856 H   0  0  0  0  0  0
    5.0564   -1.5833   27.1569 H   0  0  0  0  0  0
    6.0358    0.2544   23.4080 H   0  0  0  0  0  0
    6.5094   -0.9106   18.7807 H   0  0  0  0  0  0
   10.2394   -4.4522   16.0347 H   0  0  0  0  0  0
   12.3930   -4.1102   19.6882 H   0  0  0  0  0  0
    8.7124   -2.5599   25.1724 H   0  0  0  0  0  0
    9.4326   -1.2357   23.3029 H   0  0  0  0  0  0
    8.4761    0.0978   22.7338 H   0  0  0  0  0  0
   10.6712   -2.6380   20.6142 H   0  0  0  0  0  0
   12.1839   -5.0018   17.4156 H   0  0  0  0  0  0
    8.0235   -3.2254   15.7839 H   0  0  0  0  0  0
  1 15  1  0  0  0
  1 17  1  0  0  0
  1 23  1  0  0  0
  2  3  1  0  0  0
  2 12  2  0  0  0
  2 24  1  0  0  0
  3  4  2  0  0  0
  3 25  1  0  0  0
  4  5  1  0  0  0
  4  6  1  0  0  0
  5 11  3  0  0  0
  6 13  2  0  0  0
  6 26  1  0  0  0
  7 17  2  0  0  0
  7 22  1  0  0  0
  7 27  1  0  0  0
  8 19  1  0  0  0
  8 20  2  0  0  0
  8 28  1  0  0  0
  9 18  1  0  0  0
  9 19  2  0  0  0
  9 29  1  0  0  0
 10 17  1  0  0  0
 10 18  2  0  0  0
 10 20  1  0  0  0
 12 13  1  0  0  0
 12 30  1  0  0  0
 13 14  1  0  0  0
 14 15  1  0  0  0
 14 31  1  0  0  0
 14 32  1  0  0  0
 15 16  2  0  0  0
 18 33  1  0  0  0
 19 34  1  0  0  0
 20 21  1  0  0  0
 21 22  2  0  0  0
 21 35  1  0  0  0
M  END
> <s_m_entry_id>
1086

> <s_m_entry_name>
7gig.pdb.1_A_ligand

> <s_pdb_PDB_TITLE>
GROUP DEPOSITION SARS-COV-2 MAIN PROTEASE IN COMPLEX WITH INHIBITORS FROM THE COVID MOONSHOT -- CRYSTAL STRUCTURE OF SARS-COV-2 MAIN PROTEASE IN COMPLEX WITH RAL-THA-2D450E86-12 (MPRO-P0074)

> <s_pdb_PDB_ID>
7GIG

> <s_m_Source_File>
7gig.pdb.gz

> <s_user_Compound_ID>
RAL-THA-2d450e86-12

> <s_user_Monomer-Dimer>
Dimer

> <s_user_xcode>
Mpro-P0074

> <s_user_Ligands_in_both_active_sites>
NO

$$$$
