7GIH_ligand
                    3D
 Schrodinger Suite 2021-2.
 34 36  0  0  1  0            999 V2000
    6.9366   -1.9866   17.6055 N   0  0  0  0  0  0
    7.1584   -0.8199   24.3376 C   0  0  0  0  0  0
    8.1472   -0.5589   23.2252 C   0  0  0  0  0  0
    7.8664   -1.4213   22.0103 C   0  0  0  0  0  0
    8.2709   -1.5066   19.5760 C   0  0  0  0  0  0
    7.1229   -1.3882   18.7908 C   0  0  0  0  0  0
    9.1464   -2.9610   17.8196 C   0  0  0  0  0  0
   11.5093   -3.3689   19.2583 C   0  0  0  0  0  0
    9.3337   -2.3134   19.0738 C   0  0  0  0  0  0
    7.1962   -2.4540   22.0815 O   0  0  0  0  0  0
    5.9490   -0.1357   24.3711 C   0  0  0  0  0  0
    5.0383   -0.4491   25.3488 C   0  0  0  0  0  0
    3.8125    0.1425   25.2923 F   0  0  0  0  0  0
    5.2677   -1.3818   26.3327 C   0  0  0  0  0  0
    7.4310   -1.7732   25.3162 C   0  0  0  0  0  0
    6.4857   -2.0172   26.2849 C   0  0  0  0  0  0
    6.7834   -2.9133   27.2659 F   0  0  0  0  0  0
    8.4012   -0.9577   20.8632 N   0  0  0  0  0  0
   10.5510   -2.5404   19.7708 C   0  0  0  0  0  0
   11.3158   -4.0053   18.0402 C   0  0  0  0  0  0
   10.1647   -3.8111   17.3268 C   0  0  0  0  0  0
    7.9214   -2.7450   17.1418 C   0  0  0  0  0  0
    9.1577   -0.7562   23.5845 H   0  0  0  0  0  0
    8.1045    0.4929   22.9407 H   0  0  0  0  0  0
    6.3495   -0.7579   19.2045 H   0  0  0  0  0  0
   12.4283   -3.5340   19.8019 H   0  0  0  0  0  0
    5.7393    0.6278   23.6357 H   0  0  0  0  0  0
    4.5122   -1.5754   27.0801 H   0  0  0  0  0  0
    8.3711   -2.3055   25.3051 H   0  0  0  0  0  0
    8.9699   -0.1228   20.8718 H   0  0  0  0  0  0
   10.7140   -2.0479   20.7180 H   0  0  0  0  0  0
   12.0784   -4.6614   17.6469 H   0  0  0  0  0  0
   10.0367   -4.3134   16.3794 H   0  0  0  0  0  0
    7.8158   -3.2441   16.1901 H   0  0  0  0  0  0
  1  6  1  0  0  0
  1 22  2  0  0  0
  2  3  1  0  0  0
  2 11  1  0  0  0
  2 15  2  0  0  0
  3  4  1  0  0  0
  3 23  1  0  0  0
  3 24  1  0  0  0
  4 10  2  0  0  0
  4 18  1  0  0  0
  5  6  2  0  0  0
  5  9  1  0  0  0
  5 18  1  0  0  0
  6 25  1  0  0  0
  7  9  1  0  0  0
  7 21  2  0  0  0
  7 22  1  0  0  0
  8 19  1  0  0  0
  8 20  2  0  0  0
  8 26  1  0  0  0
  9 19  2  0  0  0
 11 12  2  0  0  0
 11 27  1  0  0  0
 12 13  1  0  0  0
 12 14  1  0  0  0
 14 16  2  0  0  0
 14 28  1  0  0  0
 15 16  1  0  0  0
 15 29  1  0  0  0
 16 17  1  0  0  0
 18 30  1  0  0  0
 19 31  1  0  0  0
 20 21  1  0  0  0
 20 32  1  0  0  0
 21 33  1  0  0  0
 22 34  1  0  0  0
M  END
> <s_m_entry_id>
1088

> <s_m_entry_name>
7gih.pdb.1_A_ligand

> <s_pdb_PDB_TITLE>
GROUP DEPOSITION SARS-COV-2 MAIN PROTEASE IN COMPLEX WITH INHIBITORS FROM THE COVID MOONSHOT -- CRYSTAL STRUCTURE OF SARS-COV-2 MAIN PROTEASE IN COMPLEX WITH RAL-THA-2D450E86-16 (MPRO-P0075)

> <s_pdb_PDB_ID>
7GIH

> <s_m_Source_File>
7gih.pdb.gz

> <s_user_Compound_ID>
RAL-THA-2d450e86-16

> <s_user_Monomer-Dimer>
Dimer

> <s_user_xcode>
Mpro-P0075

> <s_user_Ligands_in_both_active_sites>
YES

$$$$
