7GIK_ligand
                    3D
 Schrodinger Suite 2021-2.
 36 38  0  0  1  0            999 V2000
    8.1176   -0.8571   20.1876 N   0  0  0  0  0  0
    8.0867   -3.0369   16.7030 C   0  0  0  0  0  0
    9.2372   -3.1871   17.5076 C   0  0  0  0  0  0
   10.2962   -4.0759   17.1866 C   0  0  0  0  0  0
   11.4269   -4.1160   17.9530 C   0  0  0  0  0  0
   11.5577   -3.2913   19.0623 C   0  0  0  0  0  0
    9.3573   -2.3462   18.6531 C   0  0  0  0  0  0
    7.4931   -2.0552   25.7174 C   0  0  0  0  0  0
    5.8371   -0.4294   25.1111 C   0  0  0  0  0  0
    4.3438    0.3961   25.4175 Cl  0  0  0  0  0  0
    6.2730   -1.4473   25.9500 C   0  0  0  0  0  0
    5.2743   -2.0324   27.2375 Cl  0  0  0  0  0  0
    8.2573   -1.6700   24.6321 C   0  0  0  0  0  0
    6.5996   -0.0549   24.0190 C   0  0  0  0  0  0
    7.8139   -0.6841   23.7613 C   0  0  0  0  0  0
    8.6026   -0.3384   22.5068 C   0  0  1  0  0  0
   10.0336   -0.1393   22.7640 N   0  0  0  0  0  0
    8.3567   -1.3830   21.4044 C   0  0  0  0  0  0
    8.2762   -2.5843   21.6664 O   0  0  0  0  0  0
    8.3077   -1.4037   18.9074 C   0  0  0  0  0  0
   10.5569   -2.4268   19.4130 C   0  0  0  0  0  0
    7.1303   -2.1473   16.9246 N   0  0  0  0  0  0
    7.2667   -1.3463   17.9855 C   0  0  0  0  0  0
    7.7409    0.0765   20.1060 H   0  0  0  0  0  0
    7.9436   -3.6722   15.8415 H   0  0  0  0  0  0
   10.2126   -4.7285   16.3301 H   0  0  0  0  0  0
   12.2286   -4.7933   17.6978 H   0  0  0  0  0  0
   12.4571   -3.3278   19.6593 H   0  0  0  0  0  0
    7.8466   -2.8288   26.3830 H   0  0  0  0  0  0
    9.2140   -2.1376   24.4520 H   0  0  0  0  0  0
    6.2532    0.7291   23.3619 H   0  0  0  0  0  0
    8.2118    0.6099   22.1379 H   0  0  0  0  0  0
   10.5034    0.0866   21.8988 H   0  0  0  0  0  0
   10.1559    0.6183   23.4207 H   0  0  0  0  0  0
   10.6708   -1.7916   20.2790 H   0  0  0  0  0  0
    6.4848   -0.6100   18.0989 H   0  0  0  0  0  0
  1 18  1  0  0  0
  1 20  1  0  0  0
  1 24  1  0  0  0
  2  3  1  0  0  0
  2 22  2  0  0  0
  2 25  1  0  0  0
  3  4  1  0  0  0
  3  7  2  0  0  0
  4  5  2  0  0  0
  4 26  1  0  0  0
  5  6  1  0  0  0
  5 27  1  0  0  0
  6 21  2  0  0  0
  6 28  1  0  0  0
  7 20  1  0  0  0
  7 21  1  0  0  0
  8 11  1  0  0  0
  8 13  2  0  0  0
  8 29  1  0  0  0
  9 10  1  0  0  0
  9 11  2  0  0  0
  9 14  1  0  0  0
 11 12  1  0  0  0
 13 15  1  0  0  0
 13 30  1  0  0  0
 14 15  2  0  0  0
 14 31  1  0  0  0
 15 16  1  0  0  0
 16 17  1  0  0  0
 16 18  1  0  0  0
 16 32  1  0  0  0
 17 33  1  0  0  0
 17 34  1  0  0  0
 18 19  2  0  0  0
 20 23  2  0  0  0
 21 35  1  0  0  0
 22 23  1  0  0  0
 23 36  1  0  0  0
M  END
> <s_m_entry_id>
1093

> <s_m_entry_name>
7gik.pdb.1_A_ligand

> <s_pdb_PDB_TITLE>
GROUP DEPOSITION SARS-COV-2 MAIN PROTEASE IN COMPLEX WITH INHIBITORS FROM THE COVID MOONSHOT -- CRYSTAL STRUCTURE OF SARS-COV-2 MAIN PROTEASE IN COMPLEX WITH MAT-POS-1F3F1A6F-1 (MPRO-P0098)

> <s_pdb_PDB_ID>
7GIK

> <s_m_Source_File>
7gik.pdb.gz

> <s_user_Compound_ID>
MAT-POS-1f3f1a6f-1

> <s_user_Monomer-Dimer>
Dimer

> <s_user_xcode>
Mpro-P0098

> <s_user_Ligands_in_both_active_sites>
YES

$$$$
