7GIM_ligand
                    3D
 Schrodinger Suite 2021-2.
 39 42  0  0  1  0            999 V2000
    6.8924   -1.9207   17.3102 N   0  0  0  0  0  0
   10.1868   -2.0258   23.9294 C   0  0  0  0  0  0
   10.0118   -0.6579   23.3113 C   0  0  0  0  0  0
    8.5526   -0.4593   22.8577 C   0  0  1  0  0  0
    8.1936   -1.3369   21.6549 C   0  0  0  0  0  0
    8.3398   -1.3606   19.1748 C   0  0  0  0  0  0
    7.8081   -2.7714   16.8726 C   0  0  0  0  0  0
   11.1986   -4.1032   17.6797 C   0  0  0  0  0  0
   10.5966   -2.4602   19.3163 C   0  0  0  0  0  0
    7.6273   -0.7789   24.0118 C   0  0  0  0  0  0
    7.6633   -2.4391   21.7822 O   0  0  0  0  0  0
    9.2561   -2.2984   25.0097 O   0  0  0  0  0  0
    8.0310   -1.6771   25.0092 C   0  0  0  0  0  0
    7.1841   -1.9500   26.0772 C   0  0  0  0  0  0
    7.7426   -2.9417   27.3891 Cl  0  0  0  0  0  0
    5.9368   -1.3678   26.1683 C   0  0  0  0  0  0
    6.3767   -0.1733   24.1238 C   0  0  0  0  0  0
    5.5549   -0.4798   25.1877 C   0  0  0  0  0  0
    3.9818    0.2590   25.2811 Cl  0  0  0  0  0  0
    8.5079   -0.7970   20.4534 N   0  0  0  0  0  0
    9.3413   -2.2527   18.6821 C   0  0  0  0  0  0
   11.4931   -3.3659   18.8215 C   0  0  0  0  0  0
   10.0119   -3.9259   17.0242 C   0  0  0  0  0  0
    9.0555   -2.9948   17.5035 C   0  0  0  0  0  0
    7.1680   -1.2369   18.4287 C   0  0  0  0  0  0
   11.2079   -2.1287   24.2970 H   0  0  0  0  0  0
   10.0784   -2.7879   23.1576 H   0  0  0  0  0  0
   10.6756   -0.5599   22.4523 H   0  0  0  0  0  0
   10.2717    0.1070   24.0431 H   0  0  0  0  0  0
    8.4139    0.5855   22.5797 H   0  0  0  0  0  0
    7.6249   -3.3494   15.9789 H   0  0  0  0  0  0
   11.9102   -4.8234   17.3036 H   0  0  0  0  0  0
   10.8534   -1.8983   20.2022 H   0  0  0  0  0  0
    5.2859   -1.6120   26.9949 H   0  0  0  0  0  0
    6.0514    0.5360   23.3771 H   0  0  0  0  0  0
    8.9180    0.1248   20.4058 H   0  0  0  0  0  0
   12.4377   -3.5060   19.3261 H   0  0  0  0  0  0
    9.7964   -4.4973   16.1334 H   0  0  0  0  0  0
    6.4540   -0.5250   18.8162 H   0  0  0  0  0  0
  1  7  1  0  0  0
  1 25  2  0  0  0
  2  3  1  0  0  0
  2 12  1  0  0  0
  2 26  1  0  0  0
  2 27  1  0  0  0
  3  4  1  0  0  0
  3 28  1  0  0  0
  3 29  1  0  0  0
  4  5  1  0  0  0
  4 10  1  0  0  0
  4 30  1  0  0  0
  5 11  2  0  0  0
  5 20  1  0  0  0
  6 20  1  0  0  0
  6 21  2  0  0  0
  6 25  1  0  0  0
  7 24  2  0  0  0
  7 31  1  0  0  0
  8 22  1  0  0  0
  8 23  2  0  0  0
  8 32  1  0  0  0
  9 21  1  0  0  0
  9 22  2  0  0  0
  9 33  1  0  0  0
 10 13  1  0  0  0
 10 17  2  0  0  0
 12 13  1  0  0  0
 13 14  2  0  0  0
 14 15  1  0  0  0
 14 16  1  0  0  0
 16 18  2  0  0  0
 16 34  1  0  0  0
 17 18  1  0  0  0
 17 35  1  0  0  0
 18 19  1  0  0  0
 20 36  1  0  0  0
 21 24  1  0  0  0
 22 37  1  0  0  0
 23 24  1  0  0  0
 23 38  1  0  0  0
 25 39  1  0  0  0
M  END
> <s_m_entry_id>
1095

> <s_m_entry_name>
7gim.pdb.1_A_ligand

> <s_pdb_PDB_TITLE>
GROUP DEPOSITION SARS-COV-2 MAIN PROTEASE IN COMPLEX WITH INHIBITORS FROM THE COVID MOONSHOT -- CRYSTAL STRUCTURE OF SARS-COV-2 MAIN PROTEASE IN COMPLEX WITH ALP-UNI-3735E77E-2 (MPRO-P0111)

> <s_pdb_PDB_ID>
7GIM

> <s_m_Source_File>
7gim.pdb.gz

> <s_user_Compound_ID>
ALP-UNI-3735e77e-2

> <s_user_Monomer-Dimer>
Dimer

> <s_user_xcode>
Mpro-P0111

> <s_user_Ligands_in_both_active_sites>
YES

$$$$
