7GIN_ligand
                    3D
 Schrodinger Suite 2021-2.
 39 42  0  0  1  0            999 V2000
    6.9876   -2.0006   17.1669 N   0  0  0  0  0  0
   10.0365   -0.5310   23.0626 C   0  0  0  0  0  0
    8.5611   -0.3332   22.6799 C   0  0  1  0  0  0
    8.1688   -1.2224   21.4963 C   0  0  0  0  0  0
    8.3891   -1.3694   19.0395 C   0  0  0  0  0  0
    7.2214   -1.2990   18.2827 C   0  0  0  0  0  0
    9.1842   -2.9952   17.3960 C   0  0  0  0  0  0
   11.5864   -3.3247   18.7880 C   0  0  0  0  0  0
    9.4228   -2.2467   18.5803 C   0  0  0  0  0  0
    6.4456   -0.0871   24.0548 C   0  0  0  0  0  0
    4.0941    0.3122   25.2887 Cl  0  0  0  0  0  0
    5.6634   -0.4095   25.1461 C   0  0  0  0  0  0
    6.1216   -1.3226   26.0860 C   0  0  0  0  0  0
    5.1675   -1.7334   27.4805 Cl  0  0  0  0  0  0
    7.6961   -0.6701   23.8774 C   0  0  0  0  0  0
    8.1448   -1.5735   24.8490 C   0  0  0  0  0  0
    7.3623   -1.9110   25.9381 C   0  0  0  0  0  0
   10.2286   -1.8994   23.6704 C   0  0  0  0  0  0
    9.4073   -2.1209   24.8460 O   0  0  0  0  0  0
    7.5890   -2.3007   21.6430 O   0  0  0  0  0  0
    8.5341   -0.7420   20.2911 N   0  0  0  0  0  0
   10.6553   -2.4400   19.2581 C   0  0  0  0  0  0
   11.3479   -4.0537   17.6278 C   0  0  0  0  0  0
   10.1765   -3.9002   16.9404 C   0  0  0  0  0  0
    7.9428   -2.8155   16.7444 C   0  0  0  0  0  0
   10.3297    0.2314   23.7847 H   0  0  0  0  0  0
   10.6581   -0.4391   22.1718 H   0  0  0  0  0  0
    8.4010    0.7105   22.4085 H   0  0  0  0  0  0
    6.4735   -0.6158   18.6578 H   0  0  0  0  0  0
   12.5171   -3.4623   19.3189 H   0  0  0  0  0  0
    6.0884    0.6256   23.3260 H   0  0  0  0  0  0
    7.7117   -2.6260   26.6685 H   0  0  0  0  0  0
   11.2784   -2.0357   23.9313 H   0  0  0  0  0  0
   10.0055   -2.6617   22.9237 H   0  0  0  0  0  0
    8.9662    0.1682   20.2203 H   0  0  0  0  0  0
   10.8524   -1.8756   20.1579 H   0  0  0  0  0  0
   12.0913   -4.7477   17.2634 H   0  0  0  0  0  0
   10.0103   -4.4765   16.0419 H   0  0  0  0  0  0
    7.7982   -3.3973   15.8457 H   0  0  0  0  0  0
  1  6  1  0  0  0
  1 25  2  0  0  0
  2  3  1  0  0  0
  2 18  1  0  0  0
  2 26  1  0  0  0
  2 27  1  0  0  0
  3  4  1  0  0  0
  3 15  1  0  0  0
  3 28  1  0  0  0
  4 20  2  0  0  0
  4 21  1  0  0  0
  5  6  2  0  0  0
  5  9  1  0  0  0
  5 21  1  0  0  0
  6 29  1  0  0  0
  7  9  1  0  0  0
  7 24  2  0  0  0
  7 25  1  0  0  0
  8 22  1  0  0  0
  8 23  2  0  0  0
  8 30  1  0  0  0
  9 22  2  0  0  0
 10 12  1  0  0  0
 10 15  2  0  0  0
 10 31  1  0  0  0
 11 12  1  0  0  0
 12 13  2  0  0  0
 13 14  1  0  0  0
 13 17  1  0  0  0
 15 16  1  0  0  0
 16 17  2  0  0  0
 16 19  1  0  0  0
 17 32  1  0  0  0
 18 19  1  0  0  0
 18 33  1  0  0  0
 18 34  1  0  0  0
 21 35  1  0  0  0
 22 36  1  0  0  0
 23 24  1  0  0  0
 23 37  1  0  0  0
 24 38  1  0  0  0
 25 39  1  0  0  0
M  END
> <s_m_entry_id>
1097

> <s_m_entry_name>
7gin.pdb.1_A_ligand

> <s_pdb_PDB_TITLE>
GROUP DEPOSITION SARS-COV-2 MAIN PROTEASE IN COMPLEX WITH INHIBITORS FROM THE COVID MOONSHOT -- CRYSTAL STRUCTURE OF SARS-COV-2 MAIN PROTEASE IN COMPLEX WITH ALP-POS-869AC754-1 (MPRO-P0114)

> <s_pdb_PDB_ID>
7GIN

> <s_m_Source_File>
7gin.pdb.gz

> <s_user_Compound_ID>
ALP-POS-869ac754-1

> <s_user_Monomer-Dimer>
Dimer

> <s_user_xcode>
Mpro-P0114

> <s_user_Ligands_in_both_active_sites>
NO

$$$$
