7GIO_ligand
                    3D
 Schrodinger Suite 2021-2.
 37 39  0  0  1  0            999 V2000
    7.1598   -2.1135   17.0462 N   0  0  0  0  0  0
    7.3578   -1.4571   18.1955 C   0  0  0  0  0  0
    8.1032   -2.9591   16.6497 C   0  0  0  0  0  0
    9.2998   -3.2133   17.3658 C   0  0  0  0  0  0
   10.2804   -4.1485   16.9417 C   0  0  0  0  0  0
   11.3977   -4.3743   17.6944 C   0  0  0  0  0  0
   10.6804   -2.7758   19.3291 C   0  0  0  0  0  0
    8.1178   -1.9261   24.7804 C   0  0  0  0  0  0
    6.1398   -1.5374   26.0708 C   0  0  0  0  0  0
    6.5561   -0.2489   24.0880 C   0  0  0  0  0  0
    4.3140    0.3854   25.4399 Cl  0  0  0  0  0  0
    5.7655   -0.5340   25.1870 C   0  0  0  0  0  0
    5.0893   -2.0301   27.3567 Cl  0  0  0  0  0  0
    7.3236   -2.2249   25.8719 C   0  0  0  0  0  0
    7.7429   -0.9451   23.8726 C   0  0  0  0  0  0
    8.6331   -0.5782   22.6901 C   0  0  2  0  0  0
    8.8058    0.9500   22.6028 C   0  0  0  0  0  0
    8.1943   -1.4189   21.4782 C   0  0  0  0  0  0
    7.5723   -2.4715   21.6181 O   0  0  0  0  0  0
    8.6208   -0.9745   20.2633 N   0  0  0  0  0  0
    8.4796   -1.6022   19.0100 C   0  0  0  0  0  0
    9.4985   -2.5101   18.5858 C   0  0  0  0  0  0
   11.5998   -3.6860   18.8860 C   0  0  0  0  0  0
    6.6174   -0.7554   18.5513 H   0  0  0  0  0  0
    7.9844   -3.5063   15.7258 H   0  0  0  0  0  0
   10.1465   -4.6891   16.0160 H   0  0  0  0  0  0
   12.1342   -5.0930   17.3657 H   0  0  0  0  0  0
   10.8625   -2.2557   20.2583 H   0  0  0  0  0  0
    9.0446   -2.4590   24.6247 H   0  0  0  0  0  0
    6.2542    0.5183   23.3900 H   0  0  0  0  0  0
    7.6281   -2.9938   26.5669 H   0  0  0  0  0  0
    9.6206   -0.9583   22.9532 H   0  0  0  0  0  0
    9.4438    1.1960   21.7537 H   0  0  0  0  0  0
    7.8306    1.4198   22.4721 H   0  0  0  0  0  0
    9.2654    1.3173   23.5208 H   0  0  0  0  0  0
    9.1048   -0.0911   20.1903 H   0  0  0  0  0  0
   12.4897   -3.8682   19.4709 H   0  0  0  0  0  0
  1  2  1  0  0  0
  1  3  2  0  0  0
  2 21  2  0  0  0
  2 24  1  0  0  0
  3  4  1  0  0  0
  3 25  1  0  0  0
  4  5  1  0  0  0
  4 22  2  0  0  0
  5  6  2  0  0  0
  5 26  1  0  0  0
  6 23  1  0  0  0
  6 27  1  0  0  0
  7 22  1  0  0  0
  7 23  2  0  0  0
  7 28  1  0  0  0
  8 14  1  0  0  0
  8 15  2  0  0  0
  8 29  1  0  0  0
  9 12  1  0  0  0
  9 13  1  0  0  0
  9 14  2  0  0  0
 10 12  2  0  0  0
 10 15  1  0  0  0
 10 30  1  0  0  0
 11 12  1  0  0  0
 14 31  1  0  0  0
 15 16  1  0  0  0
 16 17  1  0  0  0
 16 18  1  0  0  0
 16 32  1  0  0  0
 17 33  1  0  0  0
 17 34  1  0  0  0
 17 35  1  0  0  0
 18 19  2  0  0  0
 18 20  1  0  0  0
 20 21  1  0  0  0
 20 36  1  0  0  0
 21 22  1  0  0  0
 23 37  1  0  0  0
M  END
> <s_m_entry_id>
1099

> <s_m_entry_name>
7gio.pdb.1_A_ligand

> <s_pdb_PDB_TITLE>
GROUP DEPOSITION SARS-COV-2 MAIN PROTEASE IN COMPLEX WITH INHIBITORS FROM THE COVID MOONSHOT -- CRYSTAL STRUCTURE OF SARS-COV-2 MAIN PROTEASE IN COMPLEX WITH MAT-POS-FCE787C2-3 (MPRO-P0121)

> <s_pdb_PDB_ID>
7GIO

> <s_m_Source_File>
7gio.pdb.gz

> <s_user_Compound_ID>
MAT-POS-fce787c2-3

> <s_user_Monomer-Dimer>
Dimer

> <s_user_xcode>
Mpro-P0121

> <s_user_Ligands_in_both_active_sites>
YES

$$$$
