7GIR_ligand
                    3D
 Schrodinger Suite 2021-2.
 40 43  0  0  1  0            999 V2000
    6.8664   -1.8355   17.6610 N   0  0  0  0  0  0
    5.9586   -2.4779   26.2709 C   0  0  0  0  0  0
    4.8405   -1.6640   26.2333 C   0  0  0  0  0  0
    4.7903   -0.6234   25.3245 C   0  0  0  0  0  0
    5.8216   -0.3737   24.4395 C   0  0  0  0  0  0
    6.9509   -1.1891   24.4616 C   0  0  0  0  0  0
    8.1707   -1.6646   19.7003 C   0  0  0  0  0  0
    8.9961   -2.9818   17.8120 C   0  0  0  0  0  0
   11.1176   -4.1369   17.9352 C   0  0  0  0  0  0
   10.3657   -2.8790   19.8280 C   0  0  0  0  0  0
    7.1905   -2.8122   22.1471 O   0  0  0  0  0  0
    7.8332   -1.7697   22.1489 C   0  0  0  0  0  0
    8.1019   -0.9719   23.4859 C   0  0  2  0  0  0
    3.3665    0.3830   25.2596 Cl  0  0  0  0  0  0
    7.0128   -2.2238   25.4064 C   0  0  0  0  0  0
    8.1417   -2.9796   25.6255 O   0  0  0  0  0  0
    9.2155   -2.8616   24.6636 C   0  0  0  0  0  0
    9.3983   -1.4476   24.1525 C   0  0  0  0  0  0
    8.2552    0.4208   23.2142 O   0  0  0  0  0  0
    8.3265   -1.2123   21.0217 N   0  0  0  0  0  0
    9.1838   -2.5022   19.1394 C   0  0  0  0  0  0
   11.3017   -3.6761   19.2311 C   0  0  0  0  0  0
    9.9940   -3.8051   17.2305 C   0  0  0  0  0  0
    7.8094   -2.6069   17.1373 C   0  0  0  0  0  0
    7.0581   -1.3786   18.9072 C   0  0  0  0  0  0
    6.0040   -3.3012   26.9686 H   0  0  0  0  0  0
    4.0179   -1.8444   26.9098 H   0  0  0  0  0  0
    5.7468    0.4465   23.7407 H   0  0  0  0  0  0
   11.8662   -4.7644   17.4736 H   0  0  0  0  0  0
   10.5352   -2.5352   20.8381 H   0  0  0  0  0  0
    9.0236   -3.5284   23.8227 H   0  0  0  0  0  0
   10.1460   -3.2067   25.1153 H   0  0  0  0  0  0
    9.6407   -0.7886   24.9867 H   0  0  0  0  0  0
   10.2098   -1.4267   23.4247 H   0  0  0  0  0  0
    8.9815    0.5492   22.5994 H   0  0  0  0  0  0
    8.8612   -0.3762   21.2097 H   0  0  0  0  0  0
   12.1924   -3.9468   19.7793 H   0  0  0  0  0  0
    9.8694   -4.1752   16.2232 H   0  0  0  0  0  0
    7.6973   -2.9914   16.1340 H   0  0  0  0  0  0
    6.3194   -0.7385   19.3675 H   0  0  0  0  0  0
  1 24  2  0  0  0
  1 25  1  0  0  0
  2  3  1  0  0  0
  2 15  2  0  0  0
  2 26  1  0  0  0
  3  4  2  0  0  0
  3 27  1  0  0  0
  4  5  1  0  0  0
  4 14  1  0  0  0
  5  6  2  0  0  0
  5 28  1  0  0  0
  6 13  1  0  0  0
  6 15  1  0  0  0
  7 20  1  0  0  0
  7 21  1  0  0  0
  7 25  2  0  0  0
  8 21  1  0  0  0
  8 23  2  0  0  0
  8 24  1  0  0  0
  9 22  2  0  0  0
  9 23  1  0  0  0
  9 29  1  0  0  0
 10 21  2  0  0  0
 10 22  1  0  0  0
 10 30  1  0  0  0
 11 12  2  0  0  0
 12 13  1  0  0  0
 12 20  1  0  0  0
 13 18  1  0  0  0
 13 19  1  0  0  0
 15 16  1  0  0  0
 16 17  1  0  0  0
 17 18  1  0  0  0
 17 31  1  0  0  0
 17 32  1  0  0  0
 18 33  1  0  0  0
 18 34  1  0  0  0
 19 35  1  0  0  0
 20 36  1  0  0  0
 22 37  1  0  0  0
 23 38  1  0  0  0
 24 39  1  0  0  0
 25 40  1  0  0  0
M  END
> <s_m_entry_id>
1101

> <s_m_entry_name>
7gir.pdb.1_A_ligand

> <s_pdb_PDB_TITLE>
GROUP DEPOSITION SARS-COV-2 MAIN PROTEASE IN COMPLEX WITH INHIBITORS FROM THE COVID MOONSHOT -- CRYSTAL STRUCTURE OF SARS-COV-2 MAIN PROTEASE IN COMPLEX WITH EDG-MED-971238D3-1 (MPRO-P0125)

> <s_pdb_PDB_ID>
7GIR

> <s_m_Source_File>
7gir.pdb.gz

> <s_user_Compound_ID>
EDG-MED-971238d3-1

> <s_user_Monomer-Dimer>
Dimer

> <s_user_xcode>
Mpro-P0125

> <s_user_Ligands_in_both_active_sites>
YES

$$$$
