7GIS_ligand
                    3D
 Schrodinger Suite 2021-2.
 33 35  0  0  1  0            999 V2000
    8.4650   -0.9610   20.5481 N   0  0  0  0  0  0
    8.2452   -0.5002   22.8977 C   0  0  0  0  0  0
    7.9830   -1.4184   21.7194 C   0  0  0  0  0  0
    8.3590   -1.5541   19.2788 C   0  0  0  0  0  0
    7.2186   -1.4586   18.4823 C   0  0  0  0  0  0
    8.0258   -2.8747   16.8908 C   0  0  0  0  0  0
   10.2801   -3.9153   17.1060 C   0  0  0  0  0  0
   10.6511   -2.5629   19.5098 C   0  0  0  0  0  0
    6.1925   -0.1351   24.3258 C   0  0  0  0  0  0
    7.3806   -2.4883   21.8397 O   0  0  0  0  0  0
    7.3764   -0.8218   24.0920 C   0  0  0  0  0  0
    7.6893   -1.8625   24.9517 C   0  0  0  0  0  0
    6.9171   -2.2540   25.9765 N   0  0  0  0  0  0
    5.7711   -1.5917   26.1830 C   0  0  0  0  0  0
    5.3800   -0.5347   25.3663 C   0  0  0  0  0  0
    3.8282    0.2286   25.5748 Cl  0  0  0  0  0  0
    9.4255   -2.3837   18.8127 C   0  0  0  0  0  0
   11.6298   -3.3767   19.0124 C   0  0  0  0  0  0
   11.4427   -4.0544   17.8105 C   0  0  0  0  0  0
    9.2449   -3.0733   17.5826 C   0  0  0  0  0  0
    7.0427   -2.0928   17.3176 N   0  0  0  0  0  0
    8.9742   -0.0887   20.5167 H   0  0  0  0  0  0
    8.0782    0.5337   22.5948 H   0  0  0  0  0  0
    9.2949   -0.5684   23.1844 H   0  0  0  0  0  0
    6.3930   -0.8363   18.7937 H   0  0  0  0  0  0
    7.8497   -3.3765   15.9508 H   0  0  0  0  0  0
   10.1437   -4.4494   16.1773 H   0  0  0  0  0  0
   10.8198   -2.0525   20.4465 H   0  0  0  0  0  0
    5.9193    0.6995   23.6965 H   0  0  0  0  0  0
    8.6066   -2.4161   24.8173 H   0  0  0  0  0  0
    5.1238   -1.8742   27.0008 H   0  0  0  0  0  0
   12.5575   -3.4983   19.5525 H   0  0  0  0  0  0
   12.2274   -4.6947   17.4364 H   0  0  0  0  0  0
  1  3  1  0  0  0
  1  4  1  0  0  0
  1 22  1  0  0  0
  2  3  1  0  0  0
  2 11  1  0  0  0
  2 23  1  0  0  0
  2 24  1  0  0  0
  3 10  2  0  0  0
  4  5  2  0  0  0
  4 17  1  0  0  0
  5 21  1  0  0  0
  5 25  1  0  0  0
  6 20  1  0  0  0
  6 21  2  0  0  0
  6 26  1  0  0  0
  7 19  1  0  0  0
  7 20  2  0  0  0
  7 27  1  0  0  0
  8 17  2  0  0  0
  8 18  1  0  0  0
  8 28  1  0  0  0
  9 11  1  0  0  0
  9 15  2  0  0  0
  9 29  1  0  0  0
 11 12  2  0  0  0
 12 13  1  0  0  0
 12 30  1  0  0  0
 13 14  2  0  0  0
 14 15  1  0  0  0
 14 31  1  0  0  0
 15 16  1  0  0  0
 17 20  1  0  0  0
 18 19  2  0  0  0
 18 32  1  0  0  0
 19 33  1  0  0  0
M  END
> <s_m_entry_id>
1103

> <s_m_entry_name>
7gis.pdb.1_A_ligand

> <s_pdb_PDB_TITLE>
GROUP DEPOSITION SARS-COV-2 MAIN PROTEASE IN COMPLEX WITH INHIBITORS FROM THE COVID MOONSHOT -- CRYSTAL STRUCTURE OF SARS-COV-2 MAIN PROTEASE IN COMPLEX WITH RAL-THA-2D450E86-30 (MPRO-P0126)

> <s_pdb_PDB_ID>
7GIS

> <s_m_Source_File>
7gis.pdb.gz

> <s_user_Compound_ID>
RAL-THA-2d450e86-30

> <s_user_Monomer-Dimer>
Dimer

> <s_user_xcode>
Mpro-P0126

> <s_user_Ligands_in_both_active_sites>
YES

$$$$
