7GIT_ligand
                    3D
 Schrodinger Suite 2021-2.
 39 41  0  0  1  0            999 V2000
    8.7224   -0.9694   20.3755 N   0  0  0  0  0  0
    7.4283   -1.3480   18.3068 C   0  0  0  0  0  0
    8.0946   -2.8562   16.7332 C   0  0  0  0  0  0
    9.3214   -3.1101   17.3941 C   0  0  0  0  0  0
   10.2962   -4.0168   16.9039 C   0  0  0  0  0  0
   11.4638   -4.2158   17.5837 C   0  0  0  0  0  0
   10.8075   -2.6495   19.2714 C   0  0  0  0  0  0
    8.1686   -2.0678   24.8890 C   0  0  0  0  0  0
    6.1626   -1.5865   26.0944 C   0  0  0  0  0  0
    6.7474   -0.2834   24.1631 C   0  0  0  0  0  0
    4.4696    0.4226   25.4197 Cl  0  0  0  0  0  0
    5.8871   -0.5491   25.2158 C   0  0  0  0  0  0
    5.0626   -1.9899   27.3680 Cl  0  0  0  0  0  0
    7.3078   -2.3407   25.9328 C   0  0  0  0  0  0
    7.8974   -1.0485   23.9888 C   0  0  0  0  0  0
    8.8244   -0.7914   22.8109 C   0  0  2  0  0  0
    9.2013    0.6325   22.6838 N   0  0  1  0  0  0
   10.5414    0.8475   23.2266 C   0  0  0  0  0  0
    8.3375   -1.5330   21.5403 C   0  0  0  0  0  0
    7.7113   -2.5893   21.6183 O   0  0  0  0  0  0
    8.5746   -1.5081   19.0830 C   0  0  0  0  0  0
    9.5770   -2.4075   18.6044 C   0  0  0  0  0  0
   11.7190   -3.5340   18.7657 C   0  0  0  0  0  0
    7.1781   -2.0003   17.1645 N   0  0  0  0  0  0
    9.1696   -0.0637   20.3762 H   0  0  0  0  0  0
    6.6595   -0.6550   18.6154 H   0  0  0  0  0  0
    7.8575   -3.3756   15.8164 H   0  0  0  0  0  0
   10.1181   -4.5567   15.9857 H   0  0  0  0  0  0
   12.1991   -4.9091   17.2027 H   0  0  0  0  0  0
   11.0339   -2.1315   20.1916 H   0  0  0  0  0  0
    9.0685   -2.6519   24.7644 H   0  0  0  0  0  0
    6.5269    0.5190   23.4747 H   0  0  0  0  0  0
    7.5307   -3.1428   26.6210 H   0  0  0  0  0  0
    9.7527   -1.2952   23.0807 H   0  0  0  0  0  0
    9.1919    0.8981   21.7094 H   0  0  0  0  0  0
   10.8094    1.8995   23.1282 H   0  0  0  0  0  0
   10.5570    0.5661   24.2796 H   0  0  0  0  0  0
   11.2587    0.2375   22.6774 H   0  0  0  0  0  0
   12.6454   -3.6999   19.2956 H   0  0  0  0  0  0
  1 19  1  0  0  0
  1 21  1  0  0  0
  1 25  1  0  0  0
  2 21  1  0  0  0
  2 24  2  0  0  0
  2 26  1  0  0  0
  3  4  2  0  0  0
  3 24  1  0  0  0
  3 27  1  0  0  0
  4  5  1  0  0  0
  4 22  1  0  0  0
  5  6  2  0  0  0
  5 28  1  0  0  0
  6 23  1  0  0  0
  6 29  1  0  0  0
  7 22  1  0  0  0
  7 23  2  0  0  0
  7 30  1  0  0  0
  8 14  1  0  0  0
  8 15  2  0  0  0
  8 31  1  0  0  0
  9 12  1  0  0  0
  9 13  1  0  0  0
  9 14  2  0  0  0
 10 12  2  0  0  0
 10 15  1  0  0  0
 10 32  1  0  0  0
 11 12  1  0  0  0
 14 33  1  0  0  0
 15 16  1  0  0  0
 16 17  1  0  0  0
 16 19  1  0  0  0
 16 34  1  0  0  0
 17 18  1  0  0  0
 17 35  1  0  0  0
 18 36  1  0  0  0
 18 37  1  0  0  0
 18 38  1  0  0  0
 19 20  2  0  0  0
 21 22  2  0  0  0
 23 39  1  0  0  0
M  END
> <s_m_entry_id>
1105

> <s_m_entry_name>
7git.pdb.1_A_ligand

> <s_pdb_PDB_TITLE>
GROUP DEPOSITION SARS-COV-2 MAIN PROTEASE IN COMPLEX WITH INHIBITORS FROM THE COVID MOONSHOT -- CRYSTAL STRUCTURE OF SARS-COV-2 MAIN PROTEASE IN COMPLEX WITH MAT-POS-FCE787C2-5 (MPRO-P0129)

> <s_pdb_PDB_ID>
7GIT

> <s_m_Source_File>
7git.pdb.gz

> <s_user_Compound_ID>
MAT-POS-fce787c2-5

> <s_user_Monomer-Dimer>
Dimer

> <s_user_xcode>
Mpro-P0129

> <s_user_Ligands_in_both_active_sites>
YES

$$$$
