7GIU_ligand
                    3D
 Schrodinger Suite 2021-2.
 39 42  0  0  1  0            999 V2000
    7.0451   -2.0642   17.1399 N   0  0  0  0  0  0
    9.9868   -0.9815   23.1941 C   0  0  0  0  0  0
    8.5569   -0.6082   22.7831 C   0  0  1  0  0  0
    8.1037   -1.4502   21.5888 C   0  0  0  0  0  0
    8.3382   -1.5447   19.1231 C   0  0  0  0  0  0
    7.2154   -1.4279   18.3062 C   0  0  0  0  0  0
    9.2242   -3.0818   17.4372 C   0  0  0  0  0  0
   11.5862   -3.4154   18.8956 C   0  0  0  0  0  0
    9.3954   -2.3965   18.6734 C   0  0  0  0  0  0
    6.4117   -0.1767   24.0624 C   0  0  0  0  0  0
    4.0340    0.3768   25.2256 Cl  0  0  0  0  0  0
    5.5793   -0.4016   25.1412 C   0  0  0  0  0  0
    5.9525   -1.3018   26.1147 C   0  0  0  0  0  0
    5.1299   -1.5076   27.1693 F   0  0  0  0  0  0
    7.6185   -0.8629   23.9435 C   0  0  0  0  0  0
    7.9606   -1.7749   24.9509 C   0  0  0  0  0  0
    7.1311   -2.0017   26.0370 C   0  0  0  0  0  0
    9.9976   -2.3651   23.7975 C   0  0  0  0  0  0
    9.1447   -2.4763   24.9637 O   0  0  0  0  0  0
    7.4973   -2.5112   21.7256 O   0  0  0  0  0  0
    8.4499   -0.9406   20.3883 N   0  0  0  0  0  0
   10.6106   -2.5912   19.3848 C   0  0  0  0  0  0
   11.4110   -4.0847   17.6884 C   0  0  0  0  0  0
   10.2575   -3.9322   16.9696 C   0  0  0  0  0  0
    8.0208   -2.8600   16.7262 C   0  0  0  0  0  0
   10.3532   -0.2629   23.9272 H   0  0  0  0  0  0
   10.6334   -0.9630   22.3167 H   0  0  0  0  0  0
    8.5218    0.4478   22.5149 H   0  0  0  0  0  0
    6.4475   -0.7650   18.6768 H   0  0  0  0  0  0
   12.5044   -3.5523   19.4475 H   0  0  0  0  0  0
    6.1292    0.5361   23.3017 H   0  0  0  0  0  0
    7.3916   -2.7083   26.8112 H   0  0  0  0  0  0
   11.0186   -2.6341   24.0685 H   0  0  0  0  0  0
    9.6815   -3.0899   23.0472 H   0  0  0  0  0  0
    8.8441   -0.0126   20.3282 H   0  0  0  0  0  0
   10.7580   -2.0780   20.3236 H   0  0  0  0  0  0
   12.1896   -4.7313   17.3114 H   0  0  0  0  0  0
   10.1375   -4.4661   16.0385 H   0  0  0  0  0  0
    7.9251   -3.3898   15.7900 H   0  0  0  0  0  0
  1  6  1  0  0  0
  1 25  2  0  0  0
  2  3  1  0  0  0
  2 18  1  0  0  0
  2 26  1  0  0  0
  2 27  1  0  0  0
  3  4  1  0  0  0
  3 15  1  0  0  0
  3 28  1  0  0  0
  4 20  2  0  0  0
  4 21  1  0  0  0
  5  6  2  0  0  0
  5  9  1  0  0  0
  5 21  1  0  0  0
  6 29  1  0  0  0
  7  9  1  0  0  0
  7 24  2  0  0  0
  7 25  1  0  0  0
  8 22  1  0  0  0
  8 23  2  0  0  0
  8 30  1  0  0  0
  9 22  2  0  0  0
 10 12  1  0  0  0
 10 15  2  0  0  0
 10 31  1  0  0  0
 11 12  1  0  0  0
 12 13  2  0  0  0
 13 14  1  0  0  0
 13 17  1  0  0  0
 15 16  1  0  0  0
 16 17  2  0  0  0
 16 19  1  0  0  0
 17 32  1  0  0  0
 18 19  1  0  0  0
 18 33  1  0  0  0
 18 34  1  0  0  0
 21 35  1  0  0  0
 22 36  1  0  0  0
 23 24  1  0  0  0
 23 37  1  0  0  0
 24 38  1  0  0  0
 25 39  1  0  0  0
M  END
> <s_m_entry_id>
1107

> <s_m_entry_name>
7giu.pdb.1_A_ligand

> <s_pdb_PDB_TITLE>
GROUP DEPOSITION SARS-COV-2 MAIN PROTEASE IN COMPLEX WITH INHIBITORS FROM THE COVID MOONSHOT -- CRYSTAL STRUCTURE OF SARS-COV-2 MAIN PROTEASE IN COMPLEX WITH RAL-THA-05E671EB-10 (MPRO-P0130)

> <s_pdb_PDB_ID>
7GIU

> <s_m_Source_File>
7giu.pdb.gz

> <s_user_Compound_ID>
RAL-THA-05e671eb-10

> <s_user_Monomer-Dimer>
Dimer

> <s_user_xcode>
Mpro-P0130

> <s_user_Ligands_in_both_active_sites>
YES

$$$$
