7GIV_ligand
                    3D
 Schrodinger Suite 2021-2.
 38 40  0  0  1  0            999 V2000
    7.0461   -1.9951   17.1146 N   0  0  0  0  0  0
    7.3275   -1.3286   18.2406 C   0  0  0  0  0  0
    7.9529   -2.8502   16.6649 C   0  0  0  0  0  0
    9.1916   -3.1043   17.2973 C   0  0  0  0  0  0
   10.1351   -4.0412   16.8105 C   0  0  0  0  0  0
   11.2938   -4.2756   17.4904 C   0  0  0  0  0  0
   10.6953   -2.6753   19.1639 C   0  0  0  0  0  0
    7.9861   -1.7773   24.6047 C   0  0  0  0  0  0
    6.0276   -1.5159   25.9472 C   0  0  0  0  0  0
    6.3873   -0.0854   24.0534 C   0  0  0  0  0  0
    4.0361    0.2280   25.3185 Cl  0  0  0  0  0  0
    5.6034   -0.4858   25.1187 C   0  0  0  0  0  0
    5.0801   -2.0204   27.3057 Cl  0  0  0  0  0  0
    7.2158   -2.1663   25.6831 C   0  0  0  0  0  0
    7.5851   -0.7354   23.7800 C   0  0  0  0  0  0
    8.4088   -0.3264   22.5828 C   0  0  1  0  0  0
    9.7302    0.1045   22.8933 O   0  0  0  0  0  0
   10.6768   -0.9674   22.9831 C   0  0  0  0  0  0
    8.2670   -1.3234   21.4290 C   0  0  0  0  0  0
    7.7184   -2.4142   21.6037 O   0  0  0  0  0  0
    8.6986   -0.8808   20.2296 N   0  0  0  0  0  0
    8.4947   -1.4822   18.9817 C   0  0  0  0  0  0
    9.4747   -2.3983   18.4970 C   0  0  0  0  0  0
   11.5738   -3.5938   18.6661 C   0  0  0  0  0  0
    6.6225   -0.6113   18.6340 H   0  0  0  0  0  0
    7.7672   -3.4071   15.7585 H   0  0  0  0  0  0
    9.9400   -4.5773   15.8934 H   0  0  0  0  0  0
   12.0038   -4.9976   17.1147 H   0  0  0  0  0  0
   10.9405   -2.1565   20.0788 H   0  0  0  0  0  0
    8.9152   -2.2859   24.3932 H   0  0  0  0  0  0
    6.0702    0.7364   23.4284 H   0  0  0  0  0  0
    7.5440   -2.9772   26.3166 H   0  0  0  0  0  0
    7.9155    0.5741   22.2169 H   0  0  0  0  0  0
   11.6610   -0.5646   23.2222 H   0  0  0  0  0  0
   10.3684   -1.6605   23.7659 H   0  0  0  0  0  0
   10.7220   -1.4937   22.0296 H   0  0  0  0  0  0
    9.2325   -0.0255   20.1692 H   0  0  0  0  0  0
   12.4943   -3.7878   19.1967 H   0  0  0  0  0  0
  1  2  1  0  0  0
  1  3  2  0  0  0
  2 22  2  0  0  0
  2 25  1  0  0  0
  3  4  1  0  0  0
  3 26  1  0  0  0
  4  5  1  0  0  0
  4 23  2  0  0  0
  5  6  2  0  0  0
  5 27  1  0  0  0
  6 24  1  0  0  0
  6 28  1  0  0  0
  7 23  1  0  0  0
  7 24  2  0  0  0
  7 29  1  0  0  0
  8 14  1  0  0  0
  8 15  2  0  0  0
  8 30  1  0  0  0
  9 12  1  0  0  0
  9 13  1  0  0  0
  9 14  2  0  0  0
 10 12  2  0  0  0
 10 15  1  0  0  0
 10 31  1  0  0  0
 11 12  1  0  0  0
 14 32  1  0  0  0
 15 16  1  0  0  0
 16 17  1  0  0  0
 16 19  1  0  0  0
 16 33  1  0  0  0
 17 18  1  0  0  0
 18 34  1  0  0  0
 18 35  1  0  0  0
 18 36  1  0  0  0
 19 20  2  0  0  0
 19 21  1  0  0  0
 21 22  1  0  0  0
 21 37  1  0  0  0
 22 23  1  0  0  0
 24 38  1  0  0  0
M  END
> <s_m_entry_id>
1109

> <s_m_entry_name>
7giv.pdb.1_A_ligand

> <s_pdb_PDB_TITLE>
GROUP DEPOSITION SARS-COV-2 MAIN PROTEASE IN COMPLEX WITH INHIBITORS FROM THE COVID MOONSHOT -- CRYSTAL STRUCTURE OF SARS-COV-2 MAIN PROTEASE IN COMPLEX WITH MAT-POS-DE59A476-2 (MPRO-P0135)

> <s_pdb_PDB_ID>
7GIV

> <s_m_Source_File>
7giv.pdb.gz

> <s_user_Compound_ID>
MAT-POS-de59a476-2

> <s_user_Monomer-Dimer>
Dimer

> <s_user_xcode>
Mpro-P0135

> <s_user_Ligands_in_both_active_sites>
YES

$$$$
