7GIW_ligand
                    3D
 Schrodinger Suite 2021-2.
 43 46  0  0  1  0            999 V2000
    8.3313   -1.1004   20.9478 N   0  0  0  0  0  0
    9.1551   -2.9466   17.8241 C   0  0  0  0  0  0
    7.9241   -2.7578   17.1524 C   0  0  0  0  0  0
    7.0883   -1.4535   18.8249 C   0  0  0  0  0  0
    8.2339   -1.5580   19.6158 C   0  0  0  0  0  0
    7.8340   -1.6784   22.0686 C   0  0  0  0  0  0
    9.7173   -1.8225   23.7242 C   0  0  0  0  0  0
    6.4033   -2.5397   26.2969 C   0  0  0  0  0  0
    5.1750   -0.7075   25.3988 C   0  0  0  0  0  0
    7.2817   -1.2935   24.4097 C   0  0  0  0  0  0
    3.6861    0.1960   25.3104 Cl  0  0  0  0  0  0
    5.2920   -1.7166   26.3287 C   0  0  0  0  0  0
    6.1582   -0.4700   24.4584 C   0  0  0  0  0  0
    7.3862   -2.3224   25.3444 C   0  0  0  0  0  0
    8.4937   -3.1251   25.4179 O   0  0  0  0  0  0
    9.7063   -2.4121   25.1190 C   0  0  0  0  0  0
    8.3786   -1.1084   23.3778 C   0  0  2  0  0  0
    7.0547   -2.6219   22.0457 O   0  0  0  0  0  0
    6.9225   -2.0298   17.6260 N   0  0  0  0  0  0
    9.3292   -2.3092   19.0858 C   0  0  0  0  0  0
   10.2039   -3.7484   17.3114 C   0  0  0  0  0  0
   11.3684   -3.9005   18.0018 C   0  0  0  0  0  0
   10.5622   -2.4705   19.7651 C   0  0  0  0  0  0
   11.5546   -3.2522   19.2270 C   0  0  0  0  0  0
   12.7387   -3.3749   19.9177 O   0  0  0  0  0  0
   13.7800   -4.1927   19.3717 C   0  0  0  0  0  0
    8.8210   -0.2410   21.1520 H   0  0  0  0  0  0
    7.7565   -3.2217   16.1916 H   0  0  0  0  0  0
    6.2458   -0.8718   19.1690 H   0  0  0  0  0  0
    9.9049   -2.6133   22.9978 H   0  0  0  0  0  0
   10.5399   -1.1126   23.6373 H   0  0  0  0  0  0
    6.5000   -3.3444   27.0108 H   0  0  0  0  0  0
    4.5284   -1.8691   27.0771 H   0  0  0  0  0  0
    6.0547    0.3512   23.7645 H   0  0  0  0  0  0
    9.8476   -1.6158   25.8498 H   0  0  0  0  0  0
   10.5583   -3.0818   25.2357 H   0  0  0  0  0  0
    8.5681   -0.0428   23.2489 H   0  0  0  0  0  0
   10.0862   -4.2488   16.3615 H   0  0  0  0  0  0
   12.1547   -4.5247   17.6037 H   0  0  0  0  0  0
   10.7258   -1.9771   20.7118 H   0  0  0  0  0  0
   14.6411   -4.1797   20.0400 H   0  0  0  0  0  0
   13.4201   -5.2158   19.2635 H   0  0  0  0  0  0
   14.0725   -3.8057   18.3955 H   0  0  0  0  0  0
  1  5  1  0  0  0
  1  6  1  0  0  0
  1 27  1  0  0  0
  2  3  1  0  0  0
  2 20  1  0  0  0
  2 21  2  0  0  0
  3 19  2  0  0  0
  3 28  1  0  0  0
  4  5  2  0  0  0
  4 19  1  0  0  0
  4 29  1  0  0  0
  5 20  1  0  0  0
  6 17  1  0  0  0
  6 18  2  0  0  0
  7 16  1  0  0  0
  7 17  1  0  0  0
  7 30  1  0  0  0
  7 31  1  0  0  0
  8 12  1  0  0  0
  8 14  2  0  0  0
  8 32  1  0  0  0
  9 11  1  0  0  0
  9 12  2  0  0  0
  9 13  1  0  0  0
 10 13  2  0  0  0
 10 14  1  0  0  0
 10 17  1  0  0  0
 12 33  1  0  0  0
 13 34  1  0  0  0
 14 15  1  0  0  0
 15 16  1  0  0  0
 16 35  1  0  0  0
 16 36  1  0  0  0
 17 37  1  0  0  0
 20 23  2  0  0  0
 21 22  1  0  0  0
 21 38  1  0  0  0
 22 24  2  0  0  0
 22 39  1  0  0  0
 23 24  1  0  0  0
 23 40  1  0  0  0
 24 25  1  0  0  0
 25 26  1  0  0  0
 26 41  1  0  0  0
 26 42  1  0  0  0
 26 43  1  0  0  0
M  END
> <s_m_entry_id>
1111

> <s_m_entry_name>
7giw.pdb.1_A_ligand

> <s_pdb_PDB_TITLE>
GROUP DEPOSITION SARS-COV-2 MAIN PROTEASE IN COMPLEX WITH INHIBITORS FROM THE COVID MOONSHOT -- CRYSTAL STRUCTURE OF SARS-COV-2 MAIN PROTEASE IN COMPLEX WITH MAT-POS-F9802937-7 (MPRO-P0141)

> <s_pdb_PDB_ID>
7GIW

> <s_m_Source_File>
7giw.pdb.gz

> <s_user_Compound_ID>
MAT-POS-f9802937-7

> <s_user_Monomer-Dimer>
Dimer

> <s_user_xcode>
Mpro-P0141

> <s_user_Ligands_in_both_active_sites>
NO

$$$$
