7GIX_ligand
                    3D
 Schrodinger Suite 2021-2.
 41 45  0  0  1  0            999 V2000
    8.2487   -1.1817   20.9730 N   0  0  0  0  0  0
    9.5545   -2.5464   25.2422 C   0  0  0  0  0  0
    9.6638   -2.0162   23.8219 C   0  0  0  0  0  0
    8.3896   -1.2925   23.3282 C   0  0  1  0  0  0
    8.7041    0.0634   21.4247 C   0  0  0  0  0  0
    7.9266   -2.0189   22.0426 C   0  0  0  0  0  0
    7.0423   -1.4192   18.8277 C   0  0  0  0  0  0
    9.9690   -3.9454   17.2815 C   0  0  0  0  0  0
   11.3916   -3.5285   19.1623 C   0  0  0  0  0  0
    9.2177   -2.4505   19.0735 C   0  0  0  0  0  0
    7.3296   -3.0779   21.9893 O   0  0  0  0  0  0
    8.2715   -3.1244   25.5300 O   0  0  0  0  0  0
    7.2778   -1.2545   24.3697 C   0  0  0  0  0  0
    7.2606   -2.2117   25.3816 C   0  0  0  0  0  0
    6.2461   -2.2619   26.3229 C   0  0  0  0  0  0
    5.2203   -1.3375   26.2539 C   0  0  0  0  0  0
    6.2484   -0.3166   24.3206 C   0  0  0  0  0  0
    5.2230   -0.3961   25.2446 C   0  0  0  0  0  0
    3.8257    0.6256   25.0380 Cl  0  0  0  0  0  0
    9.0539    0.9930   20.7090 O   0  0  0  0  0  0
    8.7025    0.0244   22.7813 N   0  0  0  0  0  0
    8.1975   -1.5916   19.5845 C   0  0  0  0  0  0
   10.4547   -2.7041   19.7246 C   0  0  0  0  0  0
   11.1459   -4.1536   17.9454 C   0  0  0  0  0  0
    8.9803   -3.0812   17.8176 C   0  0  0  0  0  0
    7.7554   -2.7999   17.1576 C   0  0  0  0  0  0
    6.8145   -1.9993   17.6405 N   0  0  0  0  0  0
    9.7538   -1.7387   25.9465 H   0  0  0  0  0  0
   10.3330   -3.2903   25.4119 H   0  0  0  0  0  0
    9.8974   -2.8387   23.1458 H   0  0  0  0  0  0
   10.5143   -1.3379   23.7536 H   0  0  0  0  0  0
    6.2502   -0.7802   19.1892 H   0  0  0  0  0  0
    9.7853   -4.4410   16.3397 H   0  0  0  0  0  0
   12.3325   -3.6985   19.6646 H   0  0  0  0  0  0
    6.2637   -3.0156   27.0963 H   0  0  0  0  0  0
    4.4263   -1.3563   26.9859 H   0  0  0  0  0  0
    6.2592    0.4582   23.5681 H   0  0  0  0  0  0
    8.9061    0.8601   23.3107 H   0  0  0  0  0  0
   10.6505   -2.2350   20.6775 H   0  0  0  0  0  0
   11.8946   -4.8087   17.5249 H   0  0  0  0  0  0
    7.5428   -3.2497   16.1990 H   0  0  0  0  0  0
  1  5  1  0  0  0
  1  6  1  0  0  0
  1 22  1  0  0  0
  2  3  1  0  0  0
  2 12  1  0  0  0
  2 28  1  0  0  0
  2 29  1  0  0  0
  3  4  1  0  0  0
  3 30  1  0  0  0
  3 31  1  0  0  0
  4  6  1  0  0  0
  4 13  1  0  0  0
  4 21  1  0  0  0
  5 20  2  0  0  0
  5 21  1  0  0  0
  6 11  2  0  0  0
  7 22  2  0  0  0
  7 27  1  0  0  0
  7 32  1  0  0  0
  8 24  1  0  0  0
  8 25  2  0  0  0
  8 33  1  0  0  0
  9 23  1  0  0  0
  9 24  2  0  0  0
  9 34  1  0  0  0
 10 22  1  0  0  0
 10 23  2  0  0  0
 10 25  1  0  0  0
 12 14  1  0  0  0
 13 14  1  0  0  0
 13 17  2  0  0  0
 14 15  2  0  0  0
 15 16  1  0  0  0
 15 35  1  0  0  0
 16 18  2  0  0  0
 16 36  1  0  0  0
 17 18  1  0  0  0
 17 37  1  0  0  0
 18 19  1  0  0  0
 21 38  1  0  0  0
 23 39  1  0  0  0
 24 40  1  0  0  0
 25 26  1  0  0  0
 26 27  2  0  0  0
 26 41  1  0  0  0
M  END
> <s_m_entry_id>
1113

> <s_m_entry_name>
7gix.pdb.1_A_ligand

> <s_pdb_PDB_TITLE>
GROUP DEPOSITION SARS-COV-2 MAIN PROTEASE IN COMPLEX WITH INHIBITORS FROM THE COVID MOONSHOT -- CRYSTAL STRUCTURE OF SARS-COV-2 MAIN PROTEASE IN COMPLEX WITH VLA-UNK-CF7FACF1-1 (MPRO-P0143)

> <s_pdb_PDB_ID>
7GIX

> <s_m_Source_File>
7gix.pdb.gz

> <s_user_Compound_ID>
VLA-UNK-cf7facf1-1

> <s_user_Monomer-Dimer>
Dimer

> <s_user_xcode>
Mpro-P0143

> <s_user_Ligands_in_both_active_sites>
YES

$$$$
