7GIY_ligand
                    3D
 Schrodinger Suite 2021-2.
 36 38  0  0  1  0            999 V2000
    8.2221   -1.1014   20.8982 N   0  0  0  0  0  0
    6.9417   -1.5400   18.8308 C   0  0  0  0  0  0
    8.1277   -1.5886   19.5701 C   0  0  0  0  0  0
    7.7836   -1.7262   22.0229 C   0  0  0  0  0  0
    8.1148   -0.9951   23.3284 C   0  0  2  0  0  0
    9.4560   -1.4152   23.9417 C   0  0  0  0  0  0
    7.1571   -2.1589   25.3672 C   0  0  0  0  0  0
    4.8915   -0.6128   25.2986 C   0  0  0  0  0  0
    7.0209   -1.1949   24.3599 C   0  0  0  0  0  0
    3.3903    0.2653   25.1602 Cl  0  0  0  0  0  0
    5.0318   -1.5558   26.2954 C   0  0  0  0  0  0
    6.1713   -2.3397   26.3288 C   0  0  0  0  0  0
    5.8717   -0.4097   24.3500 C   0  0  0  0  0  0
    8.2789   -2.9414   25.5158 O   0  0  0  0  0  0
    9.3467   -2.7973   24.5359 C   0  0  0  0  0  0
    7.1580   -2.7861   22.0053 O   0  0  0  0  0  0
    9.2449   -2.2205   18.9902 C   0  0  0  0  0  0
   10.5653   -2.3179   19.7100 C   0  0  0  0  0  0
    6.7996   -2.0772   17.6096 N   0  0  0  0  0  0
    7.8672   -2.6812   17.0794 C   0  0  0  0  0  0
    9.0867   -2.7740   17.7203 C   0  0  0  0  0  0
    8.6501   -0.2044   21.0778 H   0  0  0  0  0  0
    6.0708   -1.0484   19.2388 H   0  0  0  0  0  0
    8.1709    0.0707   23.1066 H   0  0  0  0  0  0
    9.7370   -0.7064   24.7207 H   0  0  0  0  0  0
   10.2253   -1.4118   23.1694 H   0  0  0  0  0  0
    4.2570   -1.6757   27.0383 H   0  0  0  0  0  0
    6.2968   -3.0888   27.0966 H   0  0  0  0  0  0
    5.7472    0.3580   23.6006 H   0  0  0  0  0  0
   10.2972   -3.0697   24.9948 H   0  0  0  0  0  0
    9.2037   -3.5241   23.7362 H   0  0  0  0  0  0
   11.2846   -2.8427   19.0813 H   0  0  0  0  0  0
   10.9361   -1.3161   19.9269 H   0  0  0  0  0  0
   10.4316   -2.8653   20.6431 H   0  0  0  0  0  0
    7.8025   -3.1296   16.0990 H   0  0  0  0  0  0
    9.9163   -3.2731   17.2416 H   0  0  0  0  0  0
  1  3  1  0  0  0
  1  4  1  0  0  0
  1 22  1  0  0  0
  2  3  1  0  0  0
  2 19  2  0  0  0
  2 23  1  0  0  0
  3 17  2  0  0  0
  4  5  1  0  0  0
  4 16  2  0  0  0
  5  6  1  0  0  0
  5  9  1  0  0  0
  5 24  1  0  0  0
  6 15  1  0  0  0
  6 25  1  0  0  0
  6 26  1  0  0  0
  7  9  1  0  0  0
  7 12  2  0  0  0
  7 14  1  0  0  0
  8 10  1  0  0  0
  8 11  2  0  0  0
  8 13  1  0  0  0
  9 13  2  0  0  0
 11 12  1  0  0  0
 11 27  1  0  0  0
 12 28  1  0  0  0
 13 29  1  0  0  0
 14 15  1  0  0  0
 15 30  1  0  0  0
 15 31  1  0  0  0
 17 18  1  0  0  0
 17 21  1  0  0  0
 18 32  1  0  0  0
 18 33  1  0  0  0
 18 34  1  0  0  0
 19 20  1  0  0  0
 20 21  2  0  0  0
 20 35  1  0  0  0
 21 36  1  0  0  0
M  END
> <s_m_entry_id>
1115

> <s_m_entry_name>
7giy.pdb.1_A_ligand

> <s_pdb_PDB_TITLE>
GROUP DEPOSITION SARS-COV-2 MAIN PROTEASE IN COMPLEX WITH INHIBITORS FROM THE COVID MOONSHOT -- CRYSTAL STRUCTURE OF SARS-COV-2 MAIN PROTEASE IN COMPLEX WITH BRU-CON-C4E3408A-1 (MPRO-P0145)

> <s_pdb_PDB_ID>
7GIY

> <s_m_Source_File>
7giy.pdb.gz

> <s_user_Compound_ID>
BRU-CON-c4e3408a-1

> <s_user_Monomer-Dimer>
Dimer

> <s_user_xcode>
Mpro-P0145

> <s_user_Ligands_in_both_active_sites>
YES

$$$$
