7GIZ_ligand
                    3D
 Schrodinger Suite 2021-2.
 45 48  0  0  1  0            999 V2000
    8.4051   -0.9807   20.5529 N   0  0  0  0  0  0
    8.2070   -0.5032   22.9219 C   0  0  1  0  0  0
    7.9262   -1.4280   21.7355 C   0  0  0  0  0  0
    8.2734   -1.5791   19.2863 C   0  0  0  0  0  0
    7.1377   -1.4606   18.4859 C   0  0  0  0  0  0
    7.9308   -2.8716   16.8836 C   0  0  0  0  0  0
   10.1557   -3.9671   17.1105 C   0  0  0  0  0  0
   10.5280   -2.6561   19.5335 C   0  0  0  0  0  0
    7.3239   -0.8517   24.1023 C   0  0  0  0  0  0
    5.2374   -0.6141   25.2563 C   0  0  0  0  0  0
    7.7172   -1.7996   25.0617 C   0  0  0  0  0  0
    3.6724    0.1405   25.3766 Cl  0  0  0  0  0  0
    6.0767   -0.2466   24.2263 C   0  0  0  0  0  0
    5.5958   -1.5786   26.1738 C   0  0  0  0  0  0
    6.8382   -2.1789   26.0733 C   0  0  0  0  0  0
    9.0637   -2.2513   25.0707 N   0  0  0  0  0  0
    9.6444   -2.9232   26.1066 C   0  0  0  0  0  0
    9.9970   -2.3279   27.1158 O   0  0  0  0  0  0
    9.8267   -4.4026   25.9479 C   0  0  0  0  0  0
    9.6748   -0.5901   23.3621 C   0  0  0  0  0  0
    9.9395   -1.9811   23.9184 C   0  0  0  0  0  0
    7.3102   -2.4872   21.8594 O   0  0  0  0  0  0
    9.3260   -2.4230   18.8181 C   0  0  0  0  0  0
   11.4807   -3.5061   19.0486 C   0  0  0  0  0  0
   11.2947   -4.1612   17.8381 C   0  0  0  0  0  0
    9.1427   -3.0943   17.5780 C   0  0  0  0  0  0
    6.9551   -2.0868   17.3178 N   0  0  0  0  0  0
    8.9283   -0.1177   20.5139 H   0  0  0  0  0  0
    7.9949    0.5226   22.6204 H   0  0  0  0  0  0
    6.3217   -0.8252   18.7970 H   0  0  0  0  0  0
    7.7551   -3.3566   15.9347 H   0  0  0  0  0  0
   10.0215   -4.4811   16.1701 H   0  0  0  0  0  0
   10.7005   -2.1583   20.4763 H   0  0  0  0  0  0
    5.7695    0.5079   23.5171 H   0  0  0  0  0  0
    4.9096   -1.8578   26.9597 H   0  0  0  0  0  0
    7.1261   -2.9426   26.7807 H   0  0  0  0  0  0
   10.2984   -4.8092   26.8425 H   0  0  0  0  0  0
    8.8553   -4.8754   25.8031 H   0  0  0  0  0  0
   10.4591   -4.6005   25.0824 H   0  0  0  0  0  0
    9.8662    0.1529   24.1363 H   0  0  0  0  0  0
   10.3225   -0.4132   22.5034 H   0  0  0  0  0  0
    9.7566   -2.7235   23.1415 H   0  0  0  0  0  0
   10.9816   -2.0556   24.2291 H   0  0  0  0  0  0
   12.3895   -3.6741   19.6076 H   0  0  0  0  0  0
   12.0611   -4.8293   17.4737 H   0  0  0  0  0  0
  1  3  1  0  0  0
  1  4  1  0  0  0
  1 28  1  0  0  0
  2  3  1  0  0  0
  2  9  1  0  0  0
  2 20  1  0  0  0
  2 29  1  0  0  0
  3 22  2  0  0  0
  4  5  2  0  0  0
  4 23  1  0  0  0
  5 27  1  0  0  0
  5 30  1  0  0  0
  6 26  1  0  0  0
  6 27  2  0  0  0
  6 31  1  0  0  0
  7 25  1  0  0  0
  7 26  2  0  0  0
  7 32  1  0  0  0
  8 23  2  0  0  0
  8 24  1  0  0  0
  8 33  1  0  0  0
  9 11  1  0  0  0
  9 13  2  0  0  0
 10 12  1  0  0  0
 10 13  1  0  0  0
 10 14  2  0  0  0
 11 15  2  0  0  0
 11 16  1  0  0  0
 13 34  1  0  0  0
 14 15  1  0  0  0
 14 35  1  0  0  0
 15 36  1  0  0  0
 16 17  1  0  0  0
 16 21  1  0  0  0
 17 18  2  0  0  0
 17 19  1  0  0  0
 19 37  1  0  0  0
 19 38  1  0  0  0
 19 39  1  0  0  0
 20 21  1  0  0  0
 20 40  1  0  0  0
 20 41  1  0  0  0
 21 42  1  0  0  0
 21 43  1  0  0  0
 23 26  1  0  0  0
 24 25  2  0  0  0
 24 44  1  0  0  0
 25 45  1  0  0  0
M  END
> <s_m_entry_id>
1117

> <s_m_entry_name>
7giz.pdb.1_A_ligand

> <s_pdb_PDB_TITLE>
GROUP DEPOSITION SARS-COV-2 MAIN PROTEASE IN COMPLEX WITH INHIBITORS FROM THE COVID MOONSHOT -- CRYSTAL STRUCTURE OF SARS-COV-2 MAIN PROTEASE IN COMPLEX WITH EDG-MED-5D232DE5-4 (MPRO-P0148)

> <s_pdb_PDB_ID>
7GIZ

> <s_m_Source_File>
7giz.pdb.gz

> <s_user_Compound_ID>
EDG-MED-5d232de5-4

> <s_user_Monomer-Dimer>
Dimer

> <s_user_xcode>
Mpro-P0148

> <s_user_Ligands_in_both_active_sites>
YES

$$$$
