7GJ1_ligand
                    3D
 Schrodinger Suite 2021-2.
 33 35  0  0  1  0            999 V2000
    7.0825   -2.0560   16.9173 N   0  0  0  0  0  0
    8.3508   -0.3303   22.5434 C   0  0  0  0  0  0
    8.1234   -1.3106   21.4063 C   0  0  0  0  0  0
    8.2188   -1.2652   18.9087 C   0  0  0  0  0  0
    7.1827   -1.2502   17.9795 C   0  0  0  0  0  0
    8.0743   -2.9014   16.6986 C   0  0  0  0  0  0
   10.3676   -3.7921   17.1934 C   0  0  0  0  0  0
    9.3061   -2.1655   18.6539 C   0  0  0  0  0  0
    5.6543   -0.4143   25.2102 C   0  0  0  0  0  0
    4.1249    0.3490   25.4962 Cl  0  0  0  0  0  0
    6.1128   -1.4224   26.0474 C   0  0  0  0  0  0
    5.2122   -1.9063   27.4477 Cl  0  0  0  0  0  0
    6.3903   -0.0416   24.0996 C   0  0  0  0  0  0
    7.5852   -0.6892   23.7970 C   0  0  0  0  0  0
    8.0333   -1.6912   24.6483 C   0  0  0  0  0  0
    7.3055   -2.0601   25.7627 C   0  0  0  0  0  0
    7.9903   -2.5158   21.6023 O   0  0  0  0  0  0
    7.9825   -0.7425   20.1957 N   0  0  0  0  0  0
   10.5138   -2.1885   19.3985 C   0  0  0  0  0  0
   11.5408   -2.9929   18.9873 C   0  0  0  0  0  0
   11.4892   -3.7894   17.9071 N   0  0  0  0  0  0
    9.2319   -2.9979   17.5028 C   0  0  0  0  0  0
    8.0669    0.6713   22.2201 H   0  0  0  0  0  0
    9.4156   -0.2807   22.7712 H   0  0  0  0  0  0
    6.4186   -0.5112   18.1707 H   0  0  0  0  0  0
    8.0314   -3.5786   15.8584 H   0  0  0  0  0  0
   10.2838   -4.4241   16.3217 H   0  0  0  0  0  0
    6.0388    0.7559   23.4616 H   0  0  0  0  0  0
    8.9656   -2.1966   24.4438 H   0  0  0  0  0  0
    7.6665   -2.8448   26.4110 H   0  0  0  0  0  0
    7.6591    0.2113   20.1199 H   0  0  0  0  0  0
   10.6158   -1.5744   20.2811 H   0  0  0  0  0  0
   12.4665   -3.0135   19.5433 H   0  0  0  0  0  0
  1  5  1  0  0  0
  1  6  2  0  0  0
  2  3  1  0  0  0
  2 14  1  0  0  0
  2 23  1  0  0  0
  2 24  1  0  0  0
  3 17  2  0  0  0
  3 18  1  0  0  0
  4  5  2  0  0  0
  4  8  1  0  0  0
  4 18  1  0  0  0
  5 25  1  0  0  0
  6 22  1  0  0  0
  6 26  1  0  0  0
  7 21  1  0  0  0
  7 22  2  0  0  0
  7 27  1  0  0  0
  8 19  2  0  0  0
  8 22  1  0  0  0
  9 10  1  0  0  0
  9 11  1  0  0  0
  9 13  2  0  0  0
 11 12  1  0  0  0
 11 16  2  0  0  0
 13 14  1  0  0  0
 13 28  1  0  0  0
 14 15  2  0  0  0
 15 16  1  0  0  0
 15 29  1  0  0  0
 16 30  1  0  0  0
 18 31  1  0  0  0
 19 20  1  0  0  0
 19 32  1  0  0  0
 20 21  2  0  0  0
 20 33  1  0  0  0
M  END
> <s_m_entry_id>
1119

> <s_m_entry_name>
7gj1.pdb.1_A_ligand

> <s_pdb_PDB_TITLE>
GROUP DEPOSITION SARS-COV-2 MAIN PROTEASE IN COMPLEX WITH INHIBITORS FROM THE COVID MOONSHOT -- CRYSTAL STRUCTURE OF SARS-COV-2 MAIN PROTEASE IN COMPLEX WITH VLA-UNK-82501C2C-1 (MPRO-P0153)

> <s_pdb_PDB_ID>
7GJ1

> <s_m_Source_File>
7gj1.pdb.gz

> <s_user_Compound_ID>
VLA-UNK-82501c2c-1

> <s_user_Monomer-Dimer>
Dimer

> <s_user_xcode>
Mpro-P0153

> <s_user_Ligands_in_both_active_sites>
YES

$$$$
