7GJ3_ligand
                    3D
 Schrodinger Suite 2021-2.
 43 46  0  0  1  0            999 V2000
    6.8686   -1.8433   17.9311 N   0  0  0  0  0  0
    6.9939   -2.1854   25.8884 C   0  0  0  0  0  0
    5.9479   -2.2712   26.7972 C   0  0  0  0  0  0
    4.7761   -1.5822   26.5414 C   0  0  0  0  0  0
    4.6785   -0.8149   25.3965 C   0  0  0  0  0  0
    5.7239   -0.7009   24.5016 C   0  0  0  0  0  0
    7.6515   -1.9063   22.3830 C   0  0  0  0  0  0
    7.8693   -2.5075   17.3683 C   0  0  0  0  0  0
   10.1333   -3.5479   17.4044 C   0  0  0  0  0  0
   11.4506   -3.3911   19.4010 C   0  0  0  0  0  0
    6.8682   -2.8411   22.2876 O   0  0  0  0  0  0
    8.0537   -1.3417   23.7660 C   0  0  1  0  0  0
    6.9043   -1.3947   24.7460 C   0  0  0  0  0  0
    3.1804   -0.0015   25.0453 Cl  0  0  0  0  0  0
    8.0755   -2.9903   26.1422 O   0  0  0  0  0  0
    9.3193   -2.4588   25.6620 C   0  0  0  0  0  0
    9.2762   -2.1879   24.1711 C   0  0  0  0  0  0
    8.3844    0.0243   23.4731 O   0  0  0  0  0  0
    8.8545    0.8310   24.5592 C   0  0  0  0  0  0
    8.2722   -1.3284   21.3308 N   0  0  0  0  0  0
    8.1535   -1.6957   19.9828 C   0  0  0  0  0  0
    9.2327   -2.4087   19.3762 C   0  0  0  0  0  0
   10.4497   -2.7134   20.0414 C   0  0  0  0  0  0
   11.2898   -3.8130   18.0843 C   0  0  0  0  0  0
    9.0817   -2.8294   18.0253 C   0  0  0  0  0  0
    7.0229   -1.4482   19.2023 C   0  0  0  0  0  0
    6.0557   -2.8701   27.6897 H   0  0  0  0  0  0
    3.9491   -1.6472   27.2334 H   0  0  0  0  0  0
    5.6187   -0.0787   23.6248 H   0  0  0  0  0  0
    7.7884   -2.8397   16.3435 H   0  0  0  0  0  0
   10.0159   -3.8871   16.3854 H   0  0  0  0  0  0
   12.3756   -3.6031   19.9173 H   0  0  0  0  0  0
   10.1231   -3.1625   25.8797 H   0  0  0  0  0  0
    9.5472   -1.5340   26.1925 H   0  0  0  0  0  0
   10.1891   -1.6739   23.8697 H   0  0  0  0  0  0
    9.2569   -3.1346   23.6308 H   0  0  0  0  0  0
    9.0667    1.8377   24.1991 H   0  0  0  0  0  0
    8.0906    0.8770   25.3358 H   0  0  0  0  0  0
    9.7645    0.3933   24.9705 H   0  0  0  0  0  0
    8.8958   -0.5478   21.4791 H   0  0  0  0  0  0
   10.5789   -2.4020   21.0678 H   0  0  0  0  0  0
   12.0893   -4.3545   17.5998 H   0  0  0  0  0  0
    6.2368   -0.8949   19.6952 H   0  0  0  0  0  0
  1  8  2  0  0  0
  1 26  1  0  0  0
  2  3  1  0  0  0
  2 13  2  0  0  0
  2 15  1  0  0  0
  3  4  2  0  0  0
  3 27  1  0  0  0
  4  5  1  0  0  0
  4 28  1  0  0  0
  5  6  2  0  0  0
  5 14  1  0  0  0
  6 13  1  0  0  0
  6 29  1  0  0  0
  7 11  2  0  0  0
  7 12  1  0  0  0
  7 20  1  0  0  0
  8 25  1  0  0  0
  8 30  1  0  0  0
  9 24  1  0  0  0
  9 25  2  0  0  0
  9 31  1  0  0  0
 10 23  1  0  0  0
 10 24  2  0  0  0
 10 32  1  0  0  0
 12 13  1  0  0  0
 12 17  1  0  0  0
 12 18  1  0  0  0
 15 16  1  0  0  0
 16 17  1  0  0  0
 16 33  1  0  0  0
 16 34  1  0  0  0
 17 35  1  0  0  0
 17 36  1  0  0  0
 18 19  1  0  0  0
 19 37  1  0  0  0
 19 38  1  0  0  0
 19 39  1  0  0  0
 20 21  1  0  0  0
 20 40  1  0  0  0
 21 22  1  0  0  0
 21 26  2  0  0  0
 22 23  2  0  0  0
 22 25  1  0  0  0
 23 41  1  0  0  0
 24 42  1  0  0  0
 26 43  1  0  0  0
M  END
> <s_m_entry_id>
1121

> <s_m_entry_name>
7gj3.pdb.1_A_ligand

> <s_pdb_PDB_TITLE>
GROUP DEPOSITION SARS-COV-2 MAIN PROTEASE IN COMPLEX WITH INHIBITORS FROM THE COVID MOONSHOT -- CRYSTAL STRUCTURE OF SARS-COV-2 MAIN PROTEASE IN COMPLEX WITH PET-UNK-29AFEA89-2 (MPRO-P0157)

> <s_pdb_PDB_ID>
7GJ3

> <s_m_Source_File>
7gj3.pdb.gz

> <s_user_Compound_ID>
PET-UNK-29afea89-2

> <s_user_Monomer-Dimer>
Dimer

> <s_user_xcode>
Mpro-P0157

> <s_user_Ligands_in_both_active_sites>
YES

$$$$
