7GJ4_ligand
                    3D
 Schrodinger Suite 2021-2.
 39 42  0  0  1  0            999 V2000
    8.7713   -1.6507   21.0694 N   0  0  0  0  0  0
    7.8941   -2.7327   17.1675 C   0  0  0  0  0  0
    7.2731   -1.6664   19.0764 C   0  0  0  0  0  0
    8.5183   -1.8096   19.6936 C   0  0  0  0  0  0
    7.9485   -1.8204   22.1303 C   0  0  0  0  0  0
    8.3864   -1.0880   23.4030 C   0  0  1  0  0  0
    9.5185   -3.0150   24.4966 C   0  0  0  0  0  0
    5.3377   -1.6567   26.3996 C   0  0  0  0  0  0
    6.1688   -0.4761   24.4714 C   0  0  0  0  0  0
    9.5393   -2.4671   18.9380 C   0  0  0  0  0  0
    3.7091    0.2145   25.3308 Cl  0  0  0  0  0  0
    5.1948   -0.6922   25.4246 C   0  0  0  0  0  0
    6.4755   -2.4436   26.4136 C   0  0  0  0  0  0
    7.3167   -1.2671   24.4628 C   0  0  0  0  0  0
    7.4546   -2.2461   25.4544 C   0  0  0  0  0  0
    8.5775   -3.0300   25.5907 O   0  0  0  0  0  0
    9.7199   -1.6276   23.9421 C   0  0  0  0  0  0
    6.9811   -2.5738   22.1118 O   0  0  0  0  0  0
    6.9581   -2.0951   17.8477 N   0  0  0  0  0  0
   10.8410   -2.7156   19.4480 C   0  0  0  0  0  0
   11.7068   -3.4475   18.7047 C   0  0  0  0  0  0
   12.9771   -3.6080   19.1674 F   0  0  0  0  0  0
    9.2004   -2.9740   17.6520 C   0  0  0  0  0  0
   10.1547   -3.7469   16.9492 C   0  0  0  0  0  0
   11.3877   -3.9855   17.4800 C   0  0  0  0  0  0
    9.6883   -1.3676   21.3851 H   0  0  0  0  0  0
    7.6818   -3.1062   16.1762 H   0  0  0  0  0  0
    6.4652   -1.1739   19.5979 H   0  0  0  0  0  0
    8.4949   -0.0259   23.1831 H   0  0  0  0  0  0
    9.1637   -3.6744   23.7039 H   0  0  0  0  0  0
   10.4755   -3.4125   24.8357 H   0  0  0  0  0  0
    4.5654   -1.7919   27.1426 H   0  0  0  0  0  0
    6.0402    0.3039   23.7354 H   0  0  0  0  0  0
    6.5958   -3.2059   27.1693 H   0  0  0  0  0  0
   10.0850   -0.9704   24.7318 H   0  0  0  0  0  0
   10.4509   -1.6624   23.1340 H   0  0  0  0  0  0
   11.1269   -2.3235   20.4133 H   0  0  0  0  0  0
    9.9102   -4.1561   15.9796 H   0  0  0  0  0  0
   12.1103   -4.5891   16.9502 H   0  0  0  0  0  0
  1  4  1  0  0  0
  1  5  1  0  0  0
  1 26  1  0  0  0
  2 19  1  0  0  0
  2 23  2  0  0  0
  2 27  1  0  0  0
  3  4  1  0  0  0
  3 19  2  0  0  0
  3 28  1  0  0  0
  4 10  2  0  0  0
  5  6  1  0  0  0
  5 18  2  0  0  0
  6 14  1  0  0  0
  6 17  1  0  0  0
  6 29  1  0  0  0
  7 16  1  0  0  0
  7 17  1  0  0  0
  7 30  1  0  0  0
  7 31  1  0  0  0
  8 12  1  0  0  0
  8 13  2  0  0  0
  8 32  1  0  0  0
  9 12  2  0  0  0
  9 14  1  0  0  0
  9 33  1  0  0  0
 10 20  1  0  0  0
 10 23  1  0  0  0
 11 12  1  0  0  0
 13 15  1  0  0  0
 13 34  1  0  0  0
 14 15  2  0  0  0
 15 16  1  0  0  0
 17 35  1  0  0  0
 17 36  1  0  0  0
 20 21  2  0  0  0
 20 37  1  0  0  0
 21 22  1  0  0  0
 21 25  1  0  0  0
 23 24  1  0  0  0
 24 25  2  0  0  0
 24 38  1  0  0  0
 25 39  1  0  0  0
M  END
> <s_m_entry_id>
1123

> <s_m_entry_name>
7gj4.pdb.1_A_ligand

> <s_pdb_PDB_TITLE>
GROUP DEPOSITION SARS-COV-2 MAIN PROTEASE IN COMPLEX WITH INHIBITORS FROM THE COVID MOONSHOT -- CRYSTAL STRUCTURE OF SARS-COV-2 MAIN PROTEASE IN COMPLEX WITH EDG-MED-5D232DE5-1 (MPRO-P0160)

> <s_pdb_PDB_ID>
7GJ4

> <s_m_Source_File>
7gj4.pdb.gz

> <s_user_Compound_ID>
EDG-MED-5d232de5-1

> <s_user_Monomer-Dimer>
Dimer

> <s_user_xcode>
Mpro-P0160

> <s_user_Ligands_in_both_active_sites>
NO

$$$$
