7GJ5_ligand
                    3D
 Schrodinger Suite 2021-2.
 43 46  0  0  1  0            999 V2000
    8.0779   -0.9926   20.6289 N   0  0  0  0  0  0
    8.1280   -1.6248   21.8255 C   0  0  0  0  0  0
    8.2805   -1.4718   19.3114 C   0  0  0  0  0  0
    7.3446   -1.1673   18.3227 C   0  0  0  0  0  0
    8.0543   -2.7795   16.8888 C   0  0  0  0  0  0
    9.0972   -3.1834   17.7533 C   0  0  0  0  0  0
   11.1283   -4.4148   18.2054 C   0  0  0  0  0  0
    9.2172   -2.5206   19.0100 C   0  0  0  0  0  0
    6.2552   -0.3039   24.3191 C   0  0  0  0  0  0
    5.7421   -1.5457   26.3161 C   0  0  0  0  0  0
    3.8788    0.2120   25.4718 Cl  0  0  0  0  0  0
    5.4154   -0.5977   25.3714 C   0  0  0  0  0  0
    6.9379   -2.2310   26.2031 C   0  0  0  0  0  0
    7.8041   -1.9538   25.1482 C   0  0  0  0  0  0
    9.0434   -2.5847   25.0443 N   0  0  0  0  0  0
    9.2942   -3.8273   25.7668 C   0  0  0  0  0  0
    7.4594   -0.9913   24.1883 C   0  0  0  0  0  0
    8.3838   -0.7041   23.0225 C   0  0  1  0  0  0
    9.8417   -0.7698   23.5353 C   0  0  0  0  0  0
   10.1478   -2.1083   24.2182 C   0  0  0  0  0  0
    7.8828   -2.8212   21.9633 O   0  0  0  0  0  0
   10.3348   -2.8449   19.8279 C   0  0  0  0  0  0
   11.2603   -3.7675   19.4259 C   0  0  0  0  0  0
   10.0732   -4.1419   17.3821 C   0  0  0  0  0  0
    7.2039   -1.8047   17.1544 N   0  0  0  0  0  0
    7.8648   -0.0062   20.5872 H   0  0  0  0  0  0
    6.6506   -0.3528   18.4683 H   0  0  0  0  0  0
    7.9141   -3.2782   15.9410 H   0  0  0  0  0  0
   11.8645   -5.1427   17.8986 H   0  0  0  0  0  0
    5.9778    0.4554   23.6025 H   0  0  0  0  0  0
    5.0673   -1.7472   27.1343 H   0  0  0  0  0  0
    7.2015   -2.9823   26.9331 H   0  0  0  0  0  0
   10.3094   -4.1680   25.5642 H   0  0  0  0  0  0
    9.1767   -3.6563   26.8368 H   0  0  0  0  0  0
    8.5841   -4.5873   25.4401 H   0  0  0  0  0  0
    8.1949    0.3189   22.6968 H   0  0  0  0  0  0
   10.0162    0.0443   24.2389 H   0  0  0  0  0  0
   10.5260   -0.6241   22.7001 H   0  0  0  0  0  0
   10.3818   -2.8561   23.4608 H   0  0  0  0  0  0
   11.0423   -2.0053   24.8335 H   0  0  0  0  0  0
   10.4637   -2.3599   20.7843 H   0  0  0  0  0  0
   12.0999   -3.9907   20.0684 H   0  0  0  0  0  0
    9.9859   -4.6639   16.4406 H   0  0  0  0  0  0
  1  2  1  0  0  0
  1  3  1  0  0  0
  1 26  1  0  0  0
  2 18  1  0  0  0
  2 21  2  0  0  0
  3  4  2  0  0  0
  3  8  1  0  0  0
  4 25  1  0  0  0
  4 27  1  0  0  0
  5  6  1  0  0  0
  5 25  2  0  0  0
  5 28  1  0  0  0
  6  8  1  0  0  0
  6 24  2  0  0  0
  7 23  2  0  0  0
  7 24  1  0  0  0
  7 29  1  0  0  0
  8 22  2  0  0  0
  9 12  1  0  0  0
  9 17  2  0  0  0
  9 30  1  0  0  0
 10 12  2  0  0  0
 10 13  1  0  0  0
 10 31  1  0  0  0
 11 12  1  0  0  0
 13 14  2  0  0  0
 13 32  1  0  0  0
 14 15  1  0  0  0
 14 17  1  0  0  0
 15 16  1  0  0  0
 15 20  1  0  0  0
 16 33  1  0  0  0
 16 34  1  0  0  0
 16 35  1  0  0  0
 17 18  1  0  0  0
 18 19  1  0  0  0
 18 36  1  0  0  0
 19 20  1  0  0  0
 19 37  1  0  0  0
 19 38  1  0  0  0
 20 39  1  0  0  0
 20 40  1  0  0  0
 22 23  1  0  0  0
 22 41  1  0  0  0
 23 42  1  0  0  0
 24 43  1  0  0  0
M  END
> <s_m_entry_id>
1125

> <s_m_entry_name>
7gj5.pdb.1_A_ligand

> <s_pdb_PDB_TITLE>
GROUP DEPOSITION SARS-COV-2 MAIN PROTEASE IN COMPLEX WITH INHIBITORS FROM THE COVID MOONSHOT -- CRYSTAL STRUCTURE OF SARS-COV-2 MAIN PROTEASE IN COMPLEX WITH EDG-MED-5D232DE5-5 (MPRO-P0171)

> <s_pdb_PDB_ID>
7GJ5

> <s_m_Source_File>
7gj5.pdb.gz

> <s_user_Compound_ID>
EDG-MED-5d232de5-5

> <s_user_Monomer-Dimer>
Dimer

> <s_user_xcode>
Mpro-P0171

> <s_user_Ligands_in_both_active_sites>
NO

$$$$
