7GJ6_ligand
                    3D
 Schrodinger Suite 2021-2.
 35 37  0  0  1  0            999 V2000
    7.0543   -2.0947   17.0103 N   0  0  0  0  0  0
    7.9812   -2.9594   16.6232 C   0  0  0  0  0  0
    9.1966   -3.1924   17.3112 C   0  0  0  0  0  0
   10.1616   -4.1426   16.8880 C   0  0  0  0  0  0
   11.2987   -4.3502   17.6162 C   0  0  0  0  0  0
   11.5344   -3.6285   18.7787 C   0  0  0  0  0  0
    9.4313   -2.4490   18.4976 C   0  0  0  0  0  0
    7.4912   -2.0882   25.9043 C   0  0  0  0  0  0
    5.8653   -0.4287   25.3090 C   0  0  0  0  0  0
    4.3805    0.4077   25.6241 Cl  0  0  0  0  0  0
    6.2965   -1.4404   26.1538 C   0  0  0  0  0  0
    5.2825   -2.0258   27.4260 Cl  0  0  0  0  0  0
    8.2298   -1.7561   24.7864 C   0  0  0  0  0  0
    6.6082   -0.0995   24.1872 C   0  0  0  0  0  0
    7.7896   -0.7808   23.9056 C   0  0  0  0  0  0
    8.5144   -0.5597   22.5997 C   0  0  2  0  0  0
    8.9225    0.7723   22.3085 O   0  0  0  0  0  0
    8.2718   -1.4380   21.3764 C   0  0  0  0  0  0
    7.8059   -2.5693   21.5248 O   0  0  0  0  0  0
    8.5642   -0.9059   20.1729 N   0  0  0  0  0  0
    8.4250   -1.5266   18.9214 C   0  0  0  0  0  0
   10.6338   -2.6956   19.2150 C   0  0  0  0  0  0
    7.2831   -1.4032   18.1317 C   0  0  0  0  0  0
    7.8342   -3.5437   15.7272 H   0  0  0  0  0  0
   10.0007   -4.7093   15.9831 H   0  0  0  0  0  0
   12.0242   -5.0810   17.2893 H   0  0  0  0  0  0
   12.4358   -3.8015   19.3477 H   0  0  0  0  0  0
    7.8436   -2.8513   26.5832 H   0  0  0  0  0  0
    9.1654   -2.2587   24.5879 H   0  0  0  0  0  0
    6.2718    0.6876   23.5280 H   0  0  0  0  0  0
    9.4856   -0.9613   22.8897 H   0  0  0  0  0  0
    9.3704    0.7927   21.4589 H   0  0  0  0  0  0
    8.9245    0.0357   20.1102 H   0  0  0  0  0  0
   10.8315   -2.1344   20.1160 H   0  0  0  0  0  0
    6.5541   -0.6878   18.4836 H   0  0  0  0  0  0
  1  2  1  0  0  0
  1 23  2  0  0  0
  2  3  2  0  0  0
  2 24  1  0  0  0
  3  4  1  0  0  0
  3  7  1  0  0  0
  4  5  2  0  0  0
  4 25  1  0  0  0
  5  6  1  0  0  0
  5 26  1  0  0  0
  6 22  2  0  0  0
  6 27  1  0  0  0
  7 21  2  0  0  0
  7 22  1  0  0  0
  8 11  1  0  0  0
  8 13  2  0  0  0
  8 28  1  0  0  0
  9 10  1  0  0  0
  9 11  2  0  0  0
  9 14  1  0  0  0
 11 12  1  0  0  0
 13 15  1  0  0  0
 13 29  1  0  0  0
 14 15  2  0  0  0
 14 30  1  0  0  0
 15 16  1  0  0  0
 16 17  1  0  0  0
 16 18  1  0  0  0
 16 31  1  0  0  0
 17 32  1  0  0  0
 18 19  2  0  0  0
 18 20  1  0  0  0
 20 21  1  0  0  0
 20 33  1  0  0  0
 21 23  1  0  0  0
 22 34  1  0  0  0
 23 35  1  0  0  0
M  END
> <s_m_entry_id>
1127

> <s_m_entry_name>
7gj6.pdb.1_A_ligand

> <s_pdb_PDB_TITLE>
GROUP DEPOSITION SARS-COV-2 MAIN PROTEASE IN COMPLEX WITH INHIBITORS FROM THE COVID MOONSHOT -- CRYSTAL STRUCTURE OF SARS-COV-2 MAIN PROTEASE IN COMPLEX WITH MAT-POS-FCE787C2-4 (MPRO-P0178)

> <s_pdb_PDB_ID>
7GJ6

> <s_m_Source_File>
7gj6.pdb.gz

> <s_user_Compound_ID>
MAT-POS-fce787c2-4

> <s_user_Monomer-Dimer>
Dimer

> <s_user_xcode>
Mpro-P0178

> <s_user_Ligands_in_both_active_sites>
YES

$$$$
