7GJ8_ligand
                    3D
 Schrodinger Suite 2021-2.
 34 36  0  0  1  0            999 V2000
    7.1795   -1.9686   17.0481 N   0  0  0  0  0  0
    8.1493   -2.8176   16.7537 C   0  0  0  0  0  0
    9.3136   -2.9986   17.5323 C   0  0  0  0  0  0
   10.3890   -3.8336   17.1305 C   0  0  0  0  0  0
   11.5296   -3.9015   17.8772 C   0  0  0  0  0  0
   11.6531   -3.1654   19.0465 C   0  0  0  0  0  0
    9.4265   -2.2452   18.7358 C   0  0  0  0  0  0
    7.1932   -2.2979   25.8980 C   0  0  0  0  0  0
    5.5782   -0.6286   25.2894 C   0  0  0  0  0  0
    4.0528    0.1677   25.5318 Cl  0  0  0  0  0  0
    5.9920   -1.6556   26.1324 C   0  0  0  0  0  0
    5.0023   -2.1852   27.4557 Cl  0  0  0  0  0  0
    7.9775   -1.9229   24.8238 C   0  0  0  0  0  0
    6.3608   -0.2474   24.2135 C   0  0  0  0  0  0
    7.5646   -0.9050   23.9700 C   0  0  0  0  0  0
    8.4037   -0.5216   22.7787 C   0  0  0  0  0  0
    8.1582    0.7793   22.4469 F   0  0  0  0  0  0
    9.7255   -0.5736   23.1101 F   0  0  0  0  0  0
    8.1304   -1.4581   21.5713 C   0  0  0  0  0  0
    7.8133   -2.6360   21.7064 O   0  0  0  0  0  0
    8.1539   -0.8648   20.3666 N   0  0  0  0  0  0
    8.3694   -1.3301   19.0610 C   0  0  0  0  0  0
   10.6311   -2.3605   19.4779 C   0  0  0  0  0  0
    7.3164   -1.2363   18.1558 C   0  0  0  0  0  0
    8.0804   -3.4296   15.8665 H   0  0  0  0  0  0
   10.3083   -4.4212   16.2279 H   0  0  0  0  0  0
   12.3464   -4.5326   17.5594 H   0  0  0  0  0  0
   12.5619   -3.2230   19.6273 H   0  0  0  0  0  0
    7.5180   -3.0919   26.5542 H   0  0  0  0  0  0
    8.9184   -2.4211   24.6422 H   0  0  0  0  0  0
    6.0371    0.5558   23.5680 H   0  0  0  0  0  0
    7.9916    0.1292   20.2899 H   0  0  0  0  0  0
   10.7349   -1.8014   20.3960 H   0  0  0  0  0  0
    6.5711   -0.4971   18.4100 H   0  0  0  0  0  0
  1  2  1  0  0  0
  1 24  2  0  0  0
  2  3  2  0  0  0
  2 25  1  0  0  0
  3  4  1  0  0  0
  3  7  1  0  0  0
  4  5  2  0  0  0
  4 26  1  0  0  0
  5  6  1  0  0  0
  5 27  1  0  0  0
  6 23  2  0  0  0
  6 28  1  0  0  0
  7 22  2  0  0  0
  7 23  1  0  0  0
  8 11  1  0  0  0
  8 13  2  0  0  0
  8 29  1  0  0  0
  9 10  1  0  0  0
  9 11  2  0  0  0
  9 14  1  0  0  0
 11 12  1  0  0  0
 13 15  1  0  0  0
 13 30  1  0  0  0
 14 15  2  0  0  0
 14 31  1  0  0  0
 15 16  1  0  0  0
 16 17  1  0  0  0
 16 18  1  0  0  0
 16 19  1  0  0  0
 19 20  2  0  0  0
 19 21  1  0  0  0
 21 22  1  0  0  0
 21 32  1  0  0  0
 22 24  1  0  0  0
 23 33  1  0  0  0
 24 34  1  0  0  0
M  END
> <s_m_entry_id>
1129

> <s_m_entry_name>
7gj8.pdb.1_A_ligand

> <s_pdb_PDB_TITLE>
GROUP DEPOSITION SARS-COV-2 MAIN PROTEASE IN COMPLEX WITH INHIBITORS FROM THE COVID MOONSHOT -- CRYSTAL STRUCTURE OF SARS-COV-2 MAIN PROTEASE IN COMPLEX WITH MAT-POS-FCE787C2-6 (MPRO-P0185)

> <s_pdb_PDB_ID>
7GJ8

> <s_m_Source_File>
7gj8.pdb.gz

> <s_user_Compound_ID>
MAT-POS-fce787c2-6

> <s_user_Monomer-Dimer>
Dimer

> <s_user_xcode>
Mpro-P0185

> <s_user_Ligands_in_both_active_sites>
YES

$$$$
