7GJ9_ligand
                    3D
 Schrodinger Suite 2021-2.
 53 56  0  0  1  0            999 V2000
   10.3055    1.4543   23.4135 N   0  0  0  0  0  0
    6.9587   -1.9368   17.3724 N   0  0  0  0  0  0
   10.9521   -1.2508   23.3707 C   0  0  0  0  0  0
    9.6242   -0.8437   23.3703 C   0  0  0  0  0  0
    9.3423    0.5205   23.3926 C   0  0  0  0  0  0
    8.1580   -2.6263   24.2473 C   0  0  0  0  0  0
    7.3649   -1.8618   25.2782 C   0  0  0  0  0  0
    7.1457   -0.9578   27.5052 C   0  0  0  0  0  0
    6.1486   -1.2795   24.9403 C   0  0  0  0  0  0
    8.4382   -1.0808   20.7610 C   0  0  0  0  0  0
    7.1915   -1.4035   18.5801 C   0  0  0  0  0  0
    9.9673   -4.1128   17.0746 C   0  0  0  0  0  0
   11.0672   -4.4627   17.8043 C   0  0  0  0  0  0
   11.2907   -3.9024   19.0578 C   0  0  0  0  0  0
    9.2448   -2.6082   18.8700 C   0  0  0  0  0  0
    7.3138   -2.9779   21.6769 O   0  0  0  0  0  0
    8.0601   -2.0306   21.8855 C   0  0  0  0  0  0
    8.2812   -1.6895   19.3819 C   0  0  0  0  0  0
   10.4117   -2.9973   19.5845 C   0  0  0  0  0  0
    9.0262   -3.1818   17.5875 C   0  0  0  0  0  0
    7.8525   -2.7977   16.8976 C   0  0  0  0  0  0
    8.5922   -1.7975   23.1206 N   0  0  0  0  0  0
    5.4517   -0.5527   25.8868 C   0  0  0  0  0  0
    3.9223    0.1551   25.4485 Cl  0  0  0  0  0  0
    5.9323   -0.3766   27.1668 C   0  0  0  0  0  0
    7.8530   -1.6949   26.5668 C   0  0  0  0  0  0
   11.9580   -0.3054   23.3904 C   0  0  0  0  0  0
   11.5893    1.0459   23.4124 C   0  0  0  0  0  0
   12.5453    2.0726   23.4349 N   0  0  0  0  0  0
   13.9020    1.9630   23.4181 C   0  0  0  0  0  0
   14.4941    0.9517   23.0307 O   0  0  0  0  0  0
   14.6390    3.1717   23.9161 C   0  0  0  0  0  0
   11.1943   -2.3032   23.3555 H   0  0  0  0  0  0
    8.3035    0.8161   23.3928 H   0  0  0  0  0  0
    7.5605   -3.4586   23.8753 H   0  0  0  0  0  0
    9.0296   -3.0768   24.7223 H   0  0  0  0  0  0
    7.5428   -0.8371   28.5022 H   0  0  0  0  0  0
    5.7528   -1.3963   23.9422 H   0  0  0  0  0  0
    9.4686   -0.7520   20.8962 H   0  0  0  0  0  0
    7.8304   -0.1786   20.8296 H   0  0  0  0  0  0
    6.4975   -0.6891   18.9977 H   0  0  0  0  0  0
    9.8072   -4.5453   16.0980 H   0  0  0  0  0  0
   11.7718   -5.1796   17.4092 H   0  0  0  0  0  0
   12.1659   -4.1814   19.6258 H   0  0  0  0  0  0
   10.5984   -2.5663   20.5570 H   0  0  0  0  0  0
    7.7041   -3.2504   15.9283 H   0  0  0  0  0  0
    5.3862    0.1989   27.8996 H   0  0  0  0  0  0
    8.7948   -2.1418   26.8496 H   0  0  0  0  0  0
   12.9922   -0.6170   23.3887 H   0  0  0  0  0  0
   12.2491    3.0377   23.4679 H   0  0  0  0  0  0
   15.7126    2.9900   23.8648 H   0  0  0  0  0  0
   14.3866    4.0325   23.2968 H   0  0  0  0  0  0
   14.3538    3.3717   24.9490 H   0  0  0  0  0  0
  1  5  1  0  0  0
  1 28  2  0  0  0
  2 11  1  0  0  0
  2 21  2  0  0  0
  3  4  1  0  0  0
  3 27  2  0  0  0
  3 33  1  0  0  0
  4  5  2  0  0  0
  4 22  1  0  0  0
  5 34  1  0  0  0
  6  7  1  0  0  0
  6 22  1  0  0  0
  6 35  1  0  0  0
  6 36  1  0  0  0
  7  9  1  0  0  0
  7 26  2  0  0  0
  8 25  2  0  0  0
  8 26  1  0  0  0
  8 37  1  0  0  0
  9 23  2  0  0  0
  9 38  1  0  0  0
 10 17  1  0  0  0
 10 18  1  0  0  0
 10 39  1  0  0  0
 10 40  1  0  0  0
 11 18  2  0  0  0
 11 41  1  0  0  0
 12 13  1  0  0  0
 12 20  2  0  0  0
 12 42  1  0  0  0
 13 14  2  0  0  0
 13 43  1  0  0  0
 14 19  1  0  0  0
 14 44  1  0  0  0
 15 18  1  0  0  0
 15 19  2  0  0  0
 15 20  1  0  0  0
 16 17  2  0  0  0
 17 22  1  0  0  0
 19 45  1  0  0  0
 20 21  1  0  0  0
 21 46  1  0  0  0
 23 24  1  0  0  0
 23 25  1  0  0  0
 25 47  1  0  0  0
 26 48  1  0  0  0
 27 28  1  0  0  0
 27 49  1  0  0  0
 28 29  1  0  0  0
 29 30  1  0  0  0
 29 50  1  0  0  0
 30 31  2  0  0  0
 30 32  1  0  0  0
 32 51  1  0  0  0
 32 52  1  0  0  0
 32 53  1  0  0  0
M  END
> <s_m_entry_id>
1356

> <s_m_entry_name>
7gj9.pdb.1_A_ligand

> <s_pdb_PDB_TITLE>
GROUP DEPOSITION SARS-COV-2 MAIN PROTEASE IN COMPLEX WITH INHIBITORS FROM THE COVID MOONSHOT -- CRYSTAL STRUCTURE OF SARS-COV-2 MAIN PROTEASE IN COMPLEX WITH ALP-POS-C3A96089-4 (MPRO-P0186)

> <s_pdb_PDB_ID>
7GJ9

> <s_m_Source_File>
7gj9.pdb.gz

> <s_user_Compound_ID>
ALP-POS-c3a96089-4

> <s_user_Monomer-Dimer>
Dimer

> <s_user_xcode>
Mpro-P0186

$$$$
