7GJA_ligand
                    3D
 Schrodinger Suite 2021-2.
 45 47  0  0  1  0            999 V2000
    7.0276   -1.9898   16.8643 N   0  0  0  0  0  0
    8.4271   -1.2173   21.3206 C   0  0  0  0  0  0
    8.2921   -1.3380   18.8243 C   0  0  0  0  0  0
    7.2299   -1.2171   17.9345 C   0  0  0  0  0  0
    7.9282   -2.9196   16.6062 C   0  0  0  0  0  0
    9.0901   -3.1419   17.3770 C   0  0  0  0  0  0
   11.2663   -4.1426   17.7099 C   0  0  0  0  0  0
    9.2780   -2.3394   18.5346 C   0  0  0  0  0  0
    8.3175   -1.6923   24.4211 C   0  0  0  0  0  0
    6.4513   -1.6069   25.9181 C   0  0  0  0  0  0
    4.5464    0.3271   25.7914 Cl  0  0  0  0  0  0
    5.9502   -0.5181   25.2230 C   0  0  0  0  0  0
    5.5751   -2.2940   27.2449 Cl  0  0  0  0  0  0
    7.6468   -2.1861   25.5243 C   0  0  0  0  0  0
    6.6107   -0.0455   24.1022 C   0  0  0  0  0  0
    7.8001   -0.6351   23.6851 C   0  0  0  0  0  0
    8.4855   -0.1594   22.4275 C   0  0  1  0  0  0
    9.7961    0.3230   22.7413 O   0  0  0  0  0  0
    9.8596    1.7427   22.9149 C   0  0  0  0  0  0
   10.1385    2.4149   21.6037 C   0  0  0  0  0  0
   10.3711    3.8177   21.6832 O   0  0  0  0  0  0
   10.7398    4.3616   20.4215 C   0  0  0  0  0  0
    8.4337   -2.4160   21.5947 O   0  0  0  0  0  0
    8.1850   -0.7340   20.0896 N   0  0  0  0  0  0
   10.4943   -2.4884   19.2526 C   0  0  0  0  0  0
   11.4551   -3.3712   18.8418 C   0  0  0  0  0  0
   10.1132   -4.0440   16.9878 C   0  0  0  0  0  0
    6.5366   -0.4217   18.1650 H   0  0  0  0  0  0
    7.8012   -3.5733   15.7559 H   0  0  0  0  0  0
   12.0354   -4.8304   17.3908 H   0  0  0  0  0  0
    9.2582   -2.1296   24.1206 H   0  0  0  0  0  0
    8.0550   -3.0204   26.0757 H   0  0  0  0  0  0
    6.2034    0.7857   23.5458 H   0  0  0  0  0  0
    7.9163    0.6981   22.0685 H   0  0  0  0  0  0
   10.6512    1.9867   23.6235 H   0  0  0  0  0  0
    8.9108    2.1026   23.3128 H   0  0  0  0  0  0
    9.3126    2.2247   20.9182 H   0  0  0  0  0  0
   10.9926    1.9343   21.1266 H   0  0  0  0  0  0
   10.9089    5.4336   20.5228 H   0  0  0  0  0  0
   11.6538    3.8816   20.0715 H   0  0  0  0  0  0
    9.9398    4.1868   19.7021 H   0  0  0  0  0  0
    7.8690    0.2184   19.9741 H   0  0  0  0  0  0
   10.6734   -1.8989   20.1397 H   0  0  0  0  0  0
   12.3682   -3.4623   19.4113 H   0  0  0  0  0  0
    9.9837   -4.6618   16.1114 H   0  0  0  0  0  0
  1  4  1  0  0  0
  1  5  2  0  0  0
  2 17  1  0  0  0
  2 23  2  0  0  0
  2 24  1  0  0  0
  3  4  2  0  0  0
  3  8  1  0  0  0
  3 24  1  0  0  0
  4 28  1  0  0  0
  5  6  1  0  0  0
  5 29  1  0  0  0
  6  8  1  0  0  0
  6 27  2  0  0  0
  7 26  2  0  0  0
  7 27  1  0  0  0
  7 30  1  0  0  0
  8 25  2  0  0  0
  9 14  1  0  0  0
  9 16  2  0  0  0
  9 31  1  0  0  0
 10 12  1  0  0  0
 10 13  1  0  0  0
 10 14  2  0  0  0
 11 12  1  0  0  0
 12 15  2  0  0  0
 14 32  1  0  0  0
 15 16  1  0  0  0
 15 33  1  0  0  0
 16 17  1  0  0  0
 17 18  1  0  0  0
 17 34  1  0  0  0
 18 19  1  0  0  0
 19 20  1  0  0  0
 19 35  1  0  0  0
 19 36  1  0  0  0
 20 21  1  0  0  0
 20 37  1  0  0  0
 20 38  1  0  0  0
 21 22  1  0  0  0
 22 39  1  0  0  0
 22 40  1  0  0  0
 22 41  1  0  0  0
 24 42  1  0  0  0
 25 26  1  0  0  0
 25 43  1  0  0  0
 26 44  1  0  0  0
 27 45  1  0  0  0
M  END
> <s_m_entry_id>
1358

> <s_m_entry_name>
7gja.pdb.1_A_ligand

> <s_pdb_PDB_TITLE>
GROUP DEPOSITION SARS-COV-2 MAIN PROTEASE IN COMPLEX WITH INHIBITORS FROM THE COVID MOONSHOT -- CRYSTAL STRUCTURE OF SARS-COV-2 MAIN PROTEASE IN COMPLEX WITH MAT-POS-DE59A476-4 (MPRO-P0187)

> <s_pdb_PDB_ID>
7GJA

> <s_m_Source_File>
7gja.pdb.gz

> <s_user_Compound_ID>
MAT-POS-de59a476-4

> <s_user_Monomer-Dimer>
Dimer

> <s_user_xcode>
Mpro-P0187

$$$$
