7GJB_ligand
                    3D
 Schrodinger Suite 2021-2.
 49 52  0  0  1  0            999 V2000
    8.2839   -1.1463   20.8481 N   0  0  0  0  0  0
    9.4506   -1.9118   23.6004 C   0  0  0  0  0  0
    9.5587   -2.3755   25.0369 C   0  0  0  0  0  0
    7.1986   -2.3441   25.3119 C   0  0  0  0  0  0
    6.1785   -2.6172   26.2111 C   0  0  0  0  0  0
    5.0432   -1.8283   26.2095 C   0  0  0  0  0  0
    5.9596   -0.4967   24.4181 C   0  0  0  0  0  0
    8.2006   -1.6391   19.5286 C   0  0  0  0  0  0
    7.9193   -2.8016   17.0484 C   0  0  0  0  0  0
   10.2065   -3.7793   17.2044 C   0  0  0  0  0  0
   10.5399   -2.5538   19.6789 C   0  0  0  0  0  0
    9.3004   -2.3891   19.0040 C   0  0  0  0  0  0
    7.1440   -2.7545   21.9422 O   0  0  0  0  0  0
    7.7903   -1.7163   21.9763 C   0  0  0  0  0  0
    8.1753   -1.0752   23.3303 C   0  0  1  0  0  0
    7.1000   -1.2974   24.3950 C   0  0  0  0  0  0
    4.9440   -0.7915   25.3057 C   0  0  0  0  0  0
    3.4397    0.0817   25.1789 Cl  0  0  0  0  0  0
    8.3704   -3.0175   25.5429 O   0  0  0  0  0  0
    8.4317    0.4499   23.2121 C   0  0  0  0  0  0
    9.8564    0.8174   22.8577 C   0  0  0  0  0  0
   10.3133    0.6240   21.7321 O   0  0  0  0  0  0
   10.5610    1.3976   23.8225 N   0  0  0  0  0  0
   11.9156    1.8777   23.6124 C   0  0  0  0  0  0
   11.5457   -3.2998   19.1307 C   0  0  0  0  0  0
   11.3750   -3.9197   17.8988 C   0  0  0  0  0  0
    9.1431   -3.0034   17.7309 C   0  0  0  0  0  0
    6.9127   -2.0812   17.5203 N   0  0  0  0  0  0
    7.0647   -1.5218   18.7265 C   0  0  0  0  0  0
    8.7546   -0.2717   21.0317 H   0  0  0  0  0  0
    9.4625   -2.7777   22.9385 H   0  0  0  0  0  0
   10.3311   -1.3231   23.3427 H   0  0  0  0  0  0
    9.8090   -1.5263   25.6727 H   0  0  0  0  0  0
   10.4057   -3.0546   25.1345 H   0  0  0  0  0  0
    6.2753   -3.4399   26.9041 H   0  0  0  0  0  0
    4.2464   -2.0272   26.9109 H   0  0  0  0  0  0
    5.8768    0.3447   23.7460 H   0  0  0  0  0  0
    7.7619   -3.2492   16.0782 H   0  0  0  0  0  0
   10.0869   -4.2617   16.2456 H   0  0  0  0  0  0
   10.6981   -2.0861   20.6395 H   0  0  0  0  0  0
    8.1554    0.9362   24.1477 H   0  0  0  0  0  0
    7.7543    0.8736   22.4706 H   0  0  0  0  0  0
   10.1572    1.5176   24.7404 H   0  0  0  0  0  0
   12.2943    2.3143   24.5366 H   0  0  0  0  0  0
   12.5546    1.0460   23.3156 H   0  0  0  0  0  0
   11.9160    2.6337   22.8271 H   0  0  0  0  0  0
   12.4830   -3.4115   19.6556 H   0  0  0  0  0  0
   12.1771   -4.5171   17.4911 H   0  0  0  0  0  0
    6.2194   -0.9432   19.0687 H   0  0  0  0  0  0
  1  8  1  0  0  0
  1 14  1  0  0  0
  1 30  1  0  0  0
  2  3  1  0  0  0
  2 15  1  0  0  0
  2 31  1  0  0  0
  2 32  1  0  0  0
  3 19  1  0  0  0
  3 33  1  0  0  0
  3 34  1  0  0  0
  4  5  1  0  0  0
  4 16  2  0  0  0
  4 19  1  0  0  0
  5  6  2  0  0  0
  5 35  1  0  0  0
  6 17  1  0  0  0
  6 36  1  0  0  0
  7 16  1  0  0  0
  7 17  2  0  0  0
  7 37  1  0  0  0
  8 12  1  0  0  0
  8 29  2  0  0  0
  9 27  1  0  0  0
  9 28  2  0  0  0
  9 38  1  0  0  0
 10 26  1  0  0  0
 10 27  2  0  0  0
 10 39  1  0  0  0
 11 12  2  0  0  0
 11 25  1  0  0  0
 11 40  1  0  0  0
 12 27  1  0  0  0
 13 14  2  0  0  0
 14 15  1  0  0  0
 15 16  1  0  0  0
 15 20  1  0  0  0
 17 18  1  0  0  0
 20 21  1  0  0  0
 20 41  1  0  0  0
 20 42  1  0  0  0
 21 22  2  0  0  0
 21 23  1  0  0  0
 23 24  1  0  0  0
 23 43  1  0  0  0
 24 44  1  0  0  0
 24 45  1  0  0  0
 24 46  1  0  0  0
 25 26  2  0  0  0
 25 47  1  0  0  0
 26 48  1  0  0  0
 28 29  1  0  0  0
 29 49  1  0  0  0
M  END
> <s_m_entry_id>
1360

> <s_m_entry_name>
7gjb.pdb.1_A_ligand

> <s_pdb_PDB_TITLE>
GROUP DEPOSITION SARS-COV-2 MAIN PROTEASE IN COMPLEX WITH INHIBITORS FROM THE COVID MOONSHOT -- CRYSTAL STRUCTURE OF SARS-COV-2 MAIN PROTEASE IN COMPLEX WITH MAT-POS-5D65EC79-2 (MPRO-P0188)

> <s_pdb_PDB_ID>
7GJB

> <s_m_Source_File>
7gjb.pdb.gz

> <s_user_Compound_ID>
MAT-POS-5d65ec79-2

> <s_user_Monomer-Dimer>
Dimer

> <s_user_xcode>
Mpro-P0188

$$$$
