7GJC_ligand
                    3D
 Schrodinger Suite 2021-2.
 42 46  0  0  1  0            999 V2000
    6.8690   -1.9203   17.6158 N   0  0  0  0  0  0
    9.8196   -2.1546   25.2018 C   0  0  0  0  0  0
    9.8045   -1.7883   23.7284 C   0  0  0  0  0  0
    8.4944   -1.0781   23.2983 C   0  0  1  0  0  0
    8.8307    0.3180   22.7293 C   0  0  0  0  0  0
    8.9255    0.1224   21.2376 C   0  0  0  0  0  0
    8.2252   -1.6146   19.5854 C   0  0  0  0  0  0
    9.0020   -3.0697   17.8004 C   0  0  0  0  0  0
   11.1131   -4.2360   17.9567 C   0  0  0  0  0  0
   10.4261   -2.8188   19.7630 C   0  0  0  0  0  0
    6.3048   -0.2268   24.3343 C   0  0  0  0  0  0
    7.3406   -2.8730   22.0738 O   0  0  0  0  0  0
    7.9697   -1.8297   22.0674 C   0  0  0  0  0  0
    8.5990   -2.7959   25.6085 O   0  0  0  0  0  0
    7.4203   -1.0631   24.3936 C   0  0  0  0  0  0
    7.5188   -1.9645   25.4565 C   0  0  0  0  0  0
    6.5482   -2.0384   26.4434 C   0  0  0  0  0  0
    5.4394   -1.2167   26.3624 C   0  0  0  0  0  0
    5.3129   -0.3545   25.2923 C   0  0  0  0  0  0
    3.7785    0.4319   25.0248 Cl  0  0  0  0  0  0
    8.3472   -1.1073   20.9292 N   0  0  0  0  0  0
    9.4346    0.8651   20.4111 O   0  0  0  0  0  0
    9.2262   -2.4888   19.0787 C   0  0  0  0  0  0
   11.3410   -3.6695   19.2060 C   0  0  0  0  0  0
    9.9744   -3.9495   17.2617 C   0  0  0  0  0  0
    7.7967   -2.7387   17.1306 C   0  0  0  0  0  0
    7.0920   -1.3727   18.8201 C   0  0  0  0  0  0
    9.9725   -1.2545   25.7981 H   0  0  0  0  0  0
   10.6621   -2.8173   25.4020 H   0  0  0  0  0  0
    9.9417   -2.6892   23.1294 H   0  0  0  0  0  0
   10.6556   -1.1440   23.5070 H   0  0  0  0  0  0
    9.7983    0.6418   23.1140 H   0  0  0  0  0  0
    8.0146    1.0059   22.9528 H   0  0  0  0  0  0
   11.8410   -4.9097   17.5280 H   0  0  0  0  0  0
   10.6261   -2.3963   20.7371 H   0  0  0  0  0  0
    6.2227    0.5091   23.5479 H   0  0  0  0  0  0
    6.6636   -2.7323   27.2630 H   0  0  0  0  0  0
    4.6823   -1.2533   27.1320 H   0  0  0  0  0  0
   12.2478   -3.9001   19.7464 H   0  0  0  0  0  0
    9.8173   -4.4000   16.2922 H   0  0  0  0  0  0
    7.6573   -3.2010   16.1641 H   0  0  0  0  0  0
    6.3656   -0.6978   19.2497 H   0  0  0  0  0  0
  1 26  2  0  0  0
  1 27  1  0  0  0
  2  3  1  0  0  0
  2 14  1  0  0  0
  2 28  1  0  0  0
  2 29  1  0  0  0
  3  4  1  0  0  0
  3 30  1  0  0  0
  3 31  1  0  0  0
  4  5  1  0  0  0
  4 13  1  0  0  0
  4 15  1  0  0  0
  5  6  1  0  0  0
  5 32  1  0  0  0
  5 33  1  0  0  0
  6 21  1  0  0  0
  6 22  2  0  0  0
  7 21  1  0  0  0
  7 23  1  0  0  0
  7 27  2  0  0  0
  8 23  1  0  0  0
  8 25  2  0  0  0
  8 26  1  0  0  0
  9 24  2  0  0  0
  9 25  1  0  0  0
  9 34  1  0  0  0
 10 23  2  0  0  0
 10 24  1  0  0  0
 10 35  1  0  0  0
 11 15  1  0  0  0
 11 19  2  0  0  0
 11 36  1  0  0  0
 12 13  2  0  0  0
 13 21  1  0  0  0
 14 16  1  0  0  0
 15 16  2  0  0  0
 16 17  1  0  0  0
 17 18  2  0  0  0
 17 37  1  0  0  0
 18 19  1  0  0  0
 18 38  1  0  0  0
 19 20  1  0  0  0
 24 39  1  0  0  0
 25 40  1  0  0  0
 26 41  1  0  0  0
 27 42  1  0  0  0
M  END
> <s_m_entry_id>
1362

> <s_m_entry_name>
7gjc.pdb.1_A_ligand

> <s_pdb_PDB_TITLE>
GROUP DEPOSITION SARS-COV-2 MAIN PROTEASE IN COMPLEX WITH INHIBITORS FROM THE COVID MOONSHOT -- CRYSTAL STRUCTURE OF SARS-COV-2 MAIN PROTEASE IN COMPLEX WITH BEN-BAS-C2BC0D80-6 (MPRO-P0207)

> <s_pdb_PDB_ID>
7GJC

> <s_m_Source_File>
7gjc.pdb.gz

> <s_user_Compound_ID>
BEN-BAS-c2bc0d80-6

> <s_user_Monomer-Dimer>
Dimer

> <s_user_xcode>
Mpro-P0207

$$$$
