7GJD_ligand
                    3D
 Schrodinger Suite 2021-2.
 41 44  0  0  1  0            999 V2000
    8.5120   -1.1385   20.9277 N   0  0  0  0  0  0
    7.8217   -2.6663   17.1272 C   0  0  0  0  0  0
    9.0552   -2.9861   17.7455 C   0  0  0  0  0  0
   10.0091   -3.8594   17.1693 C   0  0  0  0  0  0
   11.1719   -4.1493   17.8205 C   0  0  0  0  0  0
   11.4398   -3.5935   19.0618 C   0  0  0  0  0  0
    9.3162   -2.4254   19.0231 C   0  0  0  0  0  0
    7.4406   -2.0575   25.4269 C   0  0  0  0  0  0
    5.2214   -1.6569   26.2205 C   0  0  0  0  0  0
    6.0982   -0.3740   24.3730 C   0  0  0  0  0  0
    8.6237   -2.7249   25.6430 O   0  0  0  0  0  0
   10.5413   -2.7523   19.6576 C   0  0  0  0  0  0
    8.3557   -0.8874   23.3534 C   0  0  1  0  0  0
    3.5855    0.2108   25.1589 Cl  0  0  0  0  0  0
    7.1451   -1.3829   18.8837 C   0  0  0  0  0  0
    7.2028   -2.5994   22.1031 O   0  0  0  0  0  0
    8.3093   -1.6040   19.6151 C   0  0  0  0  0  0
    7.9561   -1.6344   22.0581 C   0  0  0  0  0  0
    8.5841    0.5389   23.0670 N   0  0  0  0  0  0
    7.2871   -1.0969   24.4222 C   0  0  0  0  0  0
    5.0857   -0.6712   25.2646 C   0  0  0  0  0  0
    6.4155   -2.3471   26.3141 C   0  0  0  0  0  0
    9.4955   -2.8335   24.4910 C   0  0  0  0  0  0
    6.8956   -1.8869   17.6675 N   0  0  0  0  0  0
    9.7016   -1.5017   23.7999 C   0  0  0  0  0  0
    9.1272   -0.3554   21.0961 H   0  0  0  0  0  0
    7.5877   -3.0662   16.1517 H   0  0  0  0  0  0
    9.8204   -4.3047   16.2036 H   0  0  0  0  0  0
   11.8921   -4.8164   17.3692 H   0  0  0  0  0  0
   12.3656   -3.8240   19.5674 H   0  0  0  0  0  0
    4.3998   -1.8817   26.8853 H   0  0  0  0  0  0
    5.9741    0.4111   23.6419 H   0  0  0  0  0  0
   10.7597   -2.3260   20.6255 H   0  0  0  0  0  0
    6.3595   -0.7639   19.2927 H   0  0  0  0  0  0
    8.8440    1.0163   23.9182 H   0  0  0  0  0  0
    9.3272    0.6318   22.3884 H   0  0  0  0  0  0
    6.5536   -3.1061   27.0699 H   0  0  0  0  0  0
    9.0743   -3.5477   23.7837 H   0  0  0  0  0  0
   10.4605   -3.2329   24.8026 H   0  0  0  0  0  0
   10.2058   -0.8145   24.4791 H   0  0  0  0  0  0
   10.3446   -1.6397   22.9300 H   0  0  0  0  0  0
  1 17  1  0  0  0
  1 18  1  0  0  0
  1 26  1  0  0  0
  2  3  1  0  0  0
  2 24  2  0  0  0
  2 27  1  0  0  0
  3  4  1  0  0  0
  3  7  2  0  0  0
  4  5  2  0  0  0
  4 28  1  0  0  0
  5  6  1  0  0  0
  5 29  1  0  0  0
  6 12  2  0  0  0
  6 30  1  0  0  0
  7 12  1  0  0  0
  7 17  1  0  0  0
  8 11  1  0  0  0
  8 20  1  0  0  0
  8 22  2  0  0  0
  9 21  2  0  0  0
  9 22  1  0  0  0
  9 31  1  0  0  0
 10 20  2  0  0  0
 10 21  1  0  0  0
 10 32  1  0  0  0
 11 23  1  0  0  0
 12 33  1  0  0  0
 13 18  1  0  0  0
 13 19  1  0  0  0
 13 20  1  0  0  0
 13 25  1  0  0  0
 14 21  1  0  0  0
 15 17  2  0  0  0
 15 24  1  0  0  0
 15 34  1  0  0  0
 16 18  2  0  0  0
 19 35  1  0  0  0
 19 36  1  0  0  0
 22 37  1  0  0  0
 23 25  1  0  0  0
 23 38  1  0  0  0
 23 39  1  0  0  0
 25 40  1  0  0  0
 25 41  1  0  0  0
M  END
> <s_m_entry_id>
1364

> <s_m_entry_name>
7gjd.pdb.1_A_ligand

> <s_pdb_PDB_TITLE>
GROUP DEPOSITION SARS-COV-2 MAIN PROTEASE IN COMPLEX WITH INHIBITORS FROM THE COVID MOONSHOT -- CRYSTAL STRUCTURE OF SARS-COV-2 MAIN PROTEASE IN COMPLEX WITH MAT-POS-3B97339C-2 (MPRO-P0208)

> <s_pdb_PDB_ID>
7GJD

> <s_m_Source_File>
7gjd.pdb.gz

> <s_user_Compound_ID>
MAT-POS-3b97339c-2

> <s_user_Monomer-Dimer>
Dimer

> <s_user_xcode>
Mpro-P0208

$$$$
