7GJF_ligand
                    3D
 Schrodinger Suite 2021-2.
 58 62  0  0  1  0            999 V2000
    9.9386    0.5486   22.9697 N   0  3  0  0  0  0
    6.9113   -1.8902   17.8272 N   0  0  0  0  0  0
   10.0230    1.9314   22.5370 C   0  0  0  0  0  0
    8.6378    0.2355   23.5592 C   0  0  0  0  0  0
    8.2829   -1.2715   23.6297 C   0  0  2  0  0  0
    9.5062   -2.1413   24.0139 C   0  0  0  0  0  0
    9.5010   -2.5362   25.4769 C   0  0  0  0  0  0
    6.1176   -2.5591   26.5198 C   0  0  0  0  0  0
    5.9950   -0.6296   24.5093 C   0  0  0  0  0  0
    7.8637   -1.8507   22.2613 C   0  0  0  0  0  0
    7.1288   -1.4741   19.0812 C   0  0  0  0  0  0
   10.0675   -3.7721   17.2382 C   0  0  0  0  0  0
   11.2228   -4.0973   17.8922 C   0  0  0  0  0  0
   11.4605   -3.6342   19.1788 C   0  0  0  0  0  0
    9.3123   -2.5047   19.1907 C   0  0  0  0  0  0
    7.0698   -2.7773   22.1938 O   0  0  0  0  0  0
    8.4672   -1.3387   21.1635 N   0  0  0  0  0  0
    8.2820   -1.7390   19.8227 C   0  0  0  0  0  0
   10.5357   -2.8591   19.8208 C   0  0  0  0  0  0
    9.0845   -2.9650   17.8656 C   0  0  0  0  0  0
    7.8605   -2.6119   17.2468 C   0  0  0  0  0  0
    7.1292   -1.4290   24.6212 C   0  0  0  0  0  0
    4.9323   -0.8395   25.3665 C   0  0  0  0  0  0
    3.4514    0.0366   25.0968 Cl  0  0  0  0  0  0
    4.9809   -1.7843   26.3727 C   0  0  0  0  0  0
    7.1747   -2.3820   25.6417 C   0  0  0  0  0  0
    8.2703   -3.1777   25.8547 O   0  0  0  0  0  0
   10.0043    2.7866   23.7633 C   0  0  0  0  0  0
    9.1640    3.9004   24.0698 C   0  0  0  0  0  0
    9.5555    4.3144   25.3028 C   0  0  0  0  0  0
   10.8629    2.5408   24.7585 N   0  0  0  0  0  0
   10.5807    3.4944   25.6857 N   0  0  0  0  0  0
   11.4056    3.5935   26.8798 C   0  0  0  0  0  0
   10.6671    0.3621   23.6447 H   0  0  0  0  0  0
   10.1056   -0.0604   22.1816 H   0  0  0  0  0  0
    9.1601    2.1707   21.9146 H   0  0  0  0  0  0
   10.9591    2.0872   22.0003 H   0  0  0  0  0  0
    7.8573    0.7645   23.0112 H   0  0  0  0  0  0
    8.5830    0.6650   24.5595 H   0  0  0  0  0  0
   10.4234   -1.5964   23.7887 H   0  0  0  0  0  0
    9.5204   -3.0394   23.3966 H   0  0  0  0  0  0
    9.6513   -1.6492   26.0921 H   0  0  0  0  0  0
   10.3362   -3.2090   25.6745 H   0  0  0  0  0  0
    6.1737   -3.2916   27.3122 H   0  0  0  0  0  0
    5.9522    0.1457   23.7578 H   0  0  0  0  0  0
    6.3802   -0.8869   19.5925 H   0  0  0  0  0  0
    9.8961   -4.1305   16.2338 H   0  0  0  0  0  0
   11.9609   -4.7198   17.4081 H   0  0  0  0  0  0
   12.3831   -3.8858   19.6819 H   0  0  0  0  0  0
    9.1328   -0.5848   21.2581 H   0  0  0  0  0  0
   10.7298   -2.5061   20.8229 H   0  0  0  0  0  0
    7.7246   -2.9702   16.2371 H   0  0  0  0  0  0
    4.1435   -1.9218   27.0411 H   0  0  0  0  0  0
    8.4165    4.2253   23.3603 H   0  0  0  0  0  0
    9.0596    5.1502   25.7740 H   0  0  0  0  0  0
   12.1351    2.7830   26.8874 H   0  0  0  0  0  0
   11.9269    4.5509   26.8830 H   0  0  0  0  0  0
   10.7739    3.5208   27.7654 H   0  0  0  0  0  0
  1  3  1  0  0  0
  1  4  1  0  0  0
  1 34  1  0  0  0
  1 35  1  0  0  0
  2 11  1  0  0  0
  2 21  2  0  0  0
  3 28  1  0  0  0
  3 36  1  0  0  0
  3 37  1  0  0  0
  4  5  1  0  0  0
  4 38  1  0  0  0
  4 39  1  0  0  0
  5  6  1  0  0  0
  5 10  1  0  0  0
  5 22  1  0  0  0
  6  7  1  0  0  0
  6 40  1  0  0  0
  6 41  1  0  0  0
  7 27  1  0  0  0
  7 42  1  0  0  0
  7 43  1  0  0  0
  8 25  1  0  0  0
  8 26  2  0  0  0
  8 44  1  0  0  0
  9 22  2  0  0  0
  9 23  1  0  0  0
  9 45  1  0  0  0
 10 16  2  0  0  0
 10 17  1  0  0  0
 11 18  2  0  0  0
 11 46  1  0  0  0
 12 13  1  0  0  0
 12 20  2  0  0  0
 12 47  1  0  0  0
 13 14  2  0  0  0
 13 48  1  0  0  0
 14 19  1  0  0  0
 14 49  1  0  0  0
 15 18  1  0  0  0
 15 19  2  0  0  0
 15 20  1  0  0  0
 17 18  1  0  0  0
 17 50  1  0  0  0
 19 51  1  0  0  0
 20 21  1  0  0  0
 21 52  1  0  0  0
 22 26  1  0  0  0
 23 24  1  0  0  0
 23 25  2  0  0  0
 25 53  1  0  0  0
 26 27  1  0  0  0
 28 29  1  0  0  0
 28 31  2  0  0  0
 29 30  2  0  0  0
 29 54  1  0  0  0
 30 32  1  0  0  0
 30 55  1  0  0  0
 31 32  1  0  0  0
 32 33  1  0  0  0
 33 56  1  0  0  0
 33 57  1  0  0  0
 33 58  1  0  0  0
M  CHG  1   1   1
M  END
> <s_m_entry_id>
1428

> <s_m_entry_name>
_ligand

> <s_user_Compound_ID>
EDJ-MED-8c98ee63-2

> <s_user_Monomer-Dimer>
Dimer

> <s_user_xcode>
Mpro-P0224

$$$$
