7GJG_ligand
                    3D
 Schrodinger Suite 2021-2.
 69 73  0  0  1  0            999 V2000
   10.1193    1.7166   23.9860 N   0  0  0  0  0  0
    7.0780   -1.9924   17.5515 N   0  0  0  0  0  0
   11.3200    1.2009   24.6644 C   0  0  0  0  0  0
    9.7251    3.0875   24.3516 C   0  0  0  0  0  0
    9.7070    3.2661   25.8770 C   0  0  0  0  0  0
    9.5216    1.0358   22.9846 C   0  0  0  0  0  0
    8.1348    0.4866   23.2295 C   0  0  0  0  0  0
    9.3613   -1.6339   23.9943 C   0  0  0  0  0  0
    5.9697   -2.8495   26.0700 C   0  0  0  0  0  0
    4.7460   -0.9766   25.2485 C   0  0  0  0  0  0
    6.9529   -1.3795   24.4000 C   0  0  0  0  0  0
    7.2391   -1.5025   18.7879 C   0  0  0  0  0  0
    8.0507   -2.7458   17.0598 C   0  0  0  0  0  0
    9.2384   -3.0650   17.7568 C   0  0  0  0  0  0
   11.3807   -4.1716   17.9369 C   0  0  0  0  0  0
   10.5787   -2.8731   19.7838 C   0  0  0  0  0  0
    7.1316   -2.7701   21.9614 O   0  0  0  0  0  0
    7.8351   -1.7705   22.0342 C   0  0  0  0  0  0
    8.4490   -1.2624   20.9372 N   0  0  0  0  0  0
    8.3438   -1.7312   19.6074 C   0  0  0  0  0  0
    9.3956   -2.5434   19.0725 C   0  0  0  0  0  0
   11.5415   -3.6652   19.2201 C   0  0  0  0  0  0
   10.2594   -3.8848   17.2125 C   0  0  0  0  0  0
    8.0598   -1.0550   23.3932 C   0  0  1  0  0  0
    5.8015   -0.5942   24.4454 C   0  0  0  0  0  0
    3.2344   -0.1185   25.1141 Cl  0  0  0  0  0  0
    4.8161   -2.0868   26.0639 C   0  0  0  0  0  0
    7.0263   -2.4951   25.2483 C   0  0  0  0  0  0
    8.1218   -3.3260   25.3178 O   0  0  0  0  0  0
    9.2064   -3.0884   24.3871 C   0  0  0  0  0  0
   10.0534    0.8995   21.8920 O   0  0  0  0  0  0
   11.2234    1.4241   26.1727 C   0  0  0  0  0  0
   10.9902    2.8472   26.4717 N   0  3  0  0  0  0
   12.1179    3.6883   26.0357 C   0  0  0  0  0  0
   13.0950    4.0596   27.1381 C   0  0  0  0  0  0
   14.5526    3.9824   26.7172 C   0  0  0  0  0  0
   15.1168    2.7017   26.9879 O   0  0  0  0  0  0
   12.2026    1.7106   24.2778 H   0  0  0  0  0  0
   11.4222    0.1348   24.4608 H   0  0  0  0  0  0
    8.7342    3.2997   23.9495 H   0  0  0  0  0  0
   10.4267    3.7962   23.9116 H   0  0  0  0  0  0
    8.8985    2.6716   26.3024 H   0  0  0  0  0  0
    9.5198    4.3127   26.1178 H   0  0  0  0  0  0
    7.4758    0.7956   22.4178 H   0  0  0  0  0  0
    7.7084    0.9643   24.1120 H   0  0  0  0  0  0
    9.6474   -1.0504   24.8696 H   0  0  0  0  0  0
   10.1695   -1.5384   23.2690 H   0  0  0  0  0  0
    6.0418   -3.7146   26.7127 H   0  0  0  0  0  0
    6.4756   -0.8749   19.2239 H   0  0  0  0  0  0
    7.9637   -3.1592   16.0656 H   0  0  0  0  0  0
   12.1465   -4.7982   17.5037 H   0  0  0  0  0  0
   10.7291   -2.4973   20.7853 H   0  0  0  0  0  0
    9.0586   -0.4618   21.0251 H   0  0  0  0  0  0
   12.4337   -3.8956   19.7838 H   0  0  0  0  0  0
   10.1541   -4.2887   16.2162 H   0  0  0  0  0  0
    5.7325    0.3087   23.8569 H   0  0  0  0  0  0
    3.9827   -2.3629   26.6930 H   0  0  0  0  0  0
   10.1402   -3.4475   24.8203 H   0  0  0  0  0  0
    9.0530   -3.6906   23.4913 H   0  0  0  0  0  0
   12.1498    1.1004   26.6477 H   0  0  0  0  0  0
   10.4035    0.8296   26.5758 H   0  0  0  0  0  0
   10.9083    2.9404   27.4743 H   0  0  0  0  0  0
   11.7324    4.5973   25.5737 H   0  0  0  0  0  0
   12.6550    3.1837   25.2323 H   0  0  0  0  0  0
   12.9326    3.4110   27.9990 H   0  0  0  0  0  0
   12.8738    5.0663   27.4933 H   0  0  0  0  0  0
   15.1229    4.7484   27.2431 H   0  0  0  0  0  0
   14.6340    4.1965   25.6514 H   0  0  0  0  0  0
   16.0356    2.6907   26.7095 H   0  0  0  0  0  0
  1  3  1  0  0  0
  1  4  1  0  0  0
  1  6  1  0  0  0
  2 12  1  0  0  0
  2 13  2  0  0  0
  3 32  1  0  0  0
  3 38  1  0  0  0
  3 39  1  0  0  0
  4  5  1  0  0  0
  4 40  1  0  0  0
  4 41  1  0  0  0
  5 33  1  0  0  0
  5 42  1  0  0  0
  5 43  1  0  0  0
  6  7  1  0  0  0
  6 31  2  0  0  0
  7 24  1  0  0  0
  7 44  1  0  0  0
  7 45  1  0  0  0
  8 24  1  0  0  0
  8 30  1  0  0  0
  8 46  1  0  0  0
  8 47  1  0  0  0
  9 27  1  0  0  0
  9 28  2  0  0  0
  9 48  1  0  0  0
 10 25  1  0  0  0
 10 26  1  0  0  0
 10 27  2  0  0  0
 11 24  1  0  0  0
 11 25  2  0  0  0
 11 28  1  0  0  0
 12 20  2  0  0  0
 12 49  1  0  0  0
 13 14  1  0  0  0
 13 50  1  0  0  0
 14 21  1  0  0  0
 14 23  2  0  0  0
 15 22  2  0  0  0
 15 23  1  0  0  0
 15 51  1  0  0  0
 16 21  2  0  0  0
 16 22  1  0  0  0
 16 52  1  0  0  0
 17 18  2  0  0  0
 18 19  1  0  0  0
 18 24  1  0  0  0
 19 20  1  0  0  0
 19 53  1  0  0  0
 20 21  1  0  0  0
 22 54  1  0  0  0
 23 55  1  0  0  0
 25 56  1  0  0  0
 27 57  1  0  0  0
 28 29  1  0  0  0
 29 30  1  0  0  0
 30 58  1  0  0  0
 30 59  1  0  0  0
 32 33  1  0  0  0
 32 60  1  0  0  0
 32 61  1  0  0  0
 33 34  1  0  0  0
 33 62  1  0  0  0
 34 35  1  0  0  0
 34 63  1  0  0  0
 34 64  1  0  0  0
 35 36  1  0  0  0
 35 65  1  0  0  0
 35 66  1  0  0  0
 36 37  1  0  0  0
 36 67  1  0  0  0
 36 68  1  0  0  0
 37 69  1  0  0  0
M  CHG  1  33   1
M  END
> <s_m_entry_id>
1366

> <s_m_entry_name>
7gjg.pdb.1_A_ligand

> <s_pdb_PDB_TITLE>
GROUP DEPOSITION SARS-COV-2 MAIN PROTEASE IN COMPLEX WITH INHIBITORS FROM THE COVID MOONSHOT -- CRYSTAL STRUCTURE OF SARS-COV-2 MAIN PROTEASE IN COMPLEX WITH ALP-UNI-8E43A71E-8 (MPRO-P0238)

> <s_pdb_PDB_ID>
7GJG

> <s_m_Source_File>
7gjg.pdb.gz

> <s_user_Compound_ID>
ALP-UNI-8e43a71e-8

> <s_user_Monomer-Dimer>
Dimer

> <s_user_xcode>
Mpro-P0238

$$$$
