7GJH_ligand
                    3D
 Schrodinger Suite 2021-2.
 41 44  0  0  1  0            999 V2000
    8.5309   -1.0212   20.7000 N   0  0  0  0  0  0
    9.0076   -2.7727   25.1039 C   0  0  0  0  0  0
    9.8615   -1.0917   23.5615 C   0  0  0  0  0  0
    8.4571   -0.6758   23.1032 C   0  0  1  0  0  0
    8.0342   -1.4839   21.8747 C   0  0  0  0  0  0
    8.3364   -1.5661   19.4148 C   0  0  0  0  0  0
    7.8259   -2.8090   17.0110 C   0  0  0  0  0  0
   11.1920   -4.2295   17.7734 C   0  0  0  0  0  0
   10.5640   -2.7290   19.5307 C   0  0  0  0  0  0
    7.4506   -0.9842   24.1916 C   0  0  0  0  0  0
    7.3165   -2.4867   21.9609 O   0  0  0  0  0  0
    9.8696   -2.5064   23.9489 N   0  3  0  0  0  0
    7.7073   -2.0055   25.1199 C   0  0  0  0  0  0
    6.7595   -2.2769   26.1066 C   0  0  0  0  0  0
    5.5780   -1.5595   26.1789 C   0  0  0  0  0  0
    6.2631   -0.2584   24.2738 C   0  0  0  0  0  0
    5.3383   -0.5725   25.2494 C   0  0  0  0  0  0
    3.7907    0.2250   25.2310 Cl  0  0  0  0  0  0
    9.3295   -2.4505   18.8871 C   0  0  0  0  0  0
   11.4647   -3.5976   18.9801 C   0  0  0  0  0  0
   10.0179   -3.9924   17.1144 C   0  0  0  0  0  0
    9.0577   -3.0976   17.6492 C   0  0  0  0  0  0
    6.9116   -1.9783   17.4936 N   0  0  0  0  0  0
    7.1750   -1.3811   18.6644 C   0  0  0  0  0  0
    9.1124   -0.1952   20.6881 H   0  0  0  0  0  0
    9.5597   -2.5660   26.0211 H   0  0  0  0  0  0
    8.7968   -3.8410   25.1576 H   0  0  0  0  0  0
   10.1616   -0.4802   24.4128 H   0  0  0  0  0  0
   10.5703   -0.9341   22.7484 H   0  0  0  0  0  0
    8.4409    0.3895   22.8722 H   0  0  0  0  0  0
    7.5828   -3.2782   16.0688 H   0  0  0  0  0  0
   11.9106   -4.9149   17.3481 H   0  0  0  0  0  0
   10.8033   -2.2518   20.4699 H   0  0  0  0  0  0
    9.5675   -3.0706   23.1671 H   0  0  0  0  0  0
   10.8152   -2.7908   24.1626 H   0  0  0  0  0  0
    6.9420   -3.0578   26.8302 H   0  0  0  0  0  0
    4.8605   -1.7773   26.9563 H   0  0  0  0  0  0
    6.0711    0.5441   23.5769 H   0  0  0  0  0  0
   12.3959   -3.7907   19.4926 H   0  0  0  0  0  0
    9.8150   -4.4891   16.1768 H   0  0  0  0  0  0
    6.4034   -0.7133   19.0189 H   0  0  0  0  0  0
  1  5  1  0  0  0
  1  6  1  0  0  0
  1 25  1  0  0  0
  2 12  1  0  0  0
  2 13  1  0  0  0
  2 26  1  0  0  0
  2 27  1  0  0  0
  3  4  1  0  0  0
  3 12  1  0  0  0
  3 28  1  0  0  0
  3 29  1  0  0  0
  4  5  1  0  0  0
  4 10  1  0  0  0
  4 30  1  0  0  0
  5 11  2  0  0  0
  6 19  1  0  0  0
  6 24  2  0  0  0
  7 22  1  0  0  0
  7 23  2  0  0  0
  7 31  1  0  0  0
  8 20  1  0  0  0
  8 21  2  0  0  0
  8 32  1  0  0  0
  9 19  1  0  0  0
  9 20  2  0  0  0
  9 33  1  0  0  0
 10 13  1  0  0  0
 10 16  2  0  0  0
 12 34  1  0  0  0
 12 35  1  0  0  0
 13 14  2  0  0  0
 14 15  1  0  0  0
 14 36  1  0  0  0
 15 17  2  0  0  0
 15 37  1  0  0  0
 16 17  1  0  0  0
 16 38  1  0  0  0
 17 18  1  0  0  0
 19 22  2  0  0  0
 20 39  1  0  0  0
 21 22  1  0  0  0
 21 40  1  0  0  0
 23 24  1  0  0  0
 24 41  1  0  0  0
M  CHG  1  12   1
M  END
> <s_m_entry_id>
1368

> <s_m_entry_name>
7gjh.pdb.1_A_ligand

> <s_pdb_PDB_TITLE>
GROUP DEPOSITION SARS-COV-2 MAIN PROTEASE IN COMPLEX WITH INHIBITORS FROM THE COVID MOONSHOT -- CRYSTAL STRUCTURE OF SARS-COV-2 MAIN PROTEASE IN COMPLEX WITH BEN-DND-F2E727CD-5 (MPRO-P0240)

> <s_pdb_PDB_ID>
7GJH

> <s_m_Source_File>
7gjh.pdb.gz

> <s_user_Compound_ID>
BEN-DND-f2e727cd-5

> <s_user_Monomer-Dimer>
Dimer

> <s_user_xcode>
Mpro-P0240

$$$$
