7GJI_ligand
                    3D
 Schrodinger Suite 2021-2.
 43 46  0  0  1  0            999 V2000
    7.0888   -1.8435   17.4505 N   0  0  0  0  0  0
    7.8777   -2.0749   25.2667 C   0  0  0  0  0  0
    6.9402   -2.4824   26.1967 C   0  0  0  0  0  0
    5.6926   -1.8858   26.1890 C   0  0  0  0  0  0
    5.3868   -0.9066   25.2594 C   0  0  0  0  0  0
    6.3275   -0.5089   24.3278 C   0  0  0  0  0  0
    8.1434   -1.5640   21.8605 C   0  0  0  0  0  0
    8.0007   -2.6655   16.9441 C   0  0  0  0  0  0
   10.1745   -3.8837   17.0380 C   0  0  0  0  0  0
   11.5604   -3.6417   18.9769 C   0  0  0  0  0  0
    7.4100   -2.5407   21.8887 O   0  0  0  0  0  0
    8.5514   -0.8438   23.1712 C   0  0  1  0  0  0
    7.5948   -1.0891   24.3167 C   0  0  0  0  0  0
    3.8176   -0.1661   25.2437 Cl  0  0  0  0  0  0
    4.5360   -2.3456   27.3954 Cl  0  0  0  0  0  0
    9.1116   -2.6744   25.3724 O   0  0  0  0  0  0
    9.8886   -2.7137   24.1575 C   0  0  0  0  0  0
    9.9635   -1.3623   23.4793 C   0  0  0  0  0  0
    8.5177    0.5278   22.7974 O   0  0  0  0  0  0
    9.0710    1.4673   23.7306 C   0  0  0  0  0  0
    8.6806   -1.0590   20.7312 N   0  0  0  0  0  0
    8.4683   -1.5706   19.4311 C   0  0  0  0  0  0
    9.4515   -2.4490   18.8849 C   0  0  0  0  0  0
   10.6585   -2.7902   19.5506 C   0  0  0  0  0  0
   11.3175   -4.1904   17.7235 C   0  0  0  0  0  0
    9.2092   -3.0111   17.5987 C   0  0  0  0  0  0
    7.3297   -1.3218   18.6644 C   0  0  0  0  0  0
    7.1882   -3.2533   26.9115 H   0  0  0  0  0  0
    6.0819    0.2545   23.6043 H   0  0  0  0  0  0
    7.8431   -3.1160   15.9752 H   0  0  0  0  0  0
   10.0010   -4.3077   16.0599 H   0  0  0  0  0  0
   12.4721   -3.8939   19.4982 H   0  0  0  0  0  0
    9.4524   -3.4398   23.4715 H   0  0  0  0  0  0
   10.8964   -3.0623   24.3831 H   0  0  0  0  0  0
   10.4750   -0.6558   24.1332 H   0  0  0  0  0  0
   10.5276   -1.4528   22.5509 H   0  0  0  0  0  0
    8.9836    2.4760   23.3265 H   0  0  0  0  0  0
    8.5281    1.4060   24.6738 H   0  0  0  0  0  0
   10.1221    1.2346   23.9012 H   0  0  0  0  0  0
    9.2871   -0.2526   20.7772 H   0  0  0  0  0  0
   10.8591   -2.3666   20.5237 H   0  0  0  0  0  0
   12.0418   -4.8649   17.2912 H   0  0  0  0  0  0
    6.6119   -0.6539   19.1174 H   0  0  0  0  0  0
  1  8  2  0  0  0
  1 27  1  0  0  0
  2  3  1  0  0  0
  2 13  2  0  0  0
  2 16  1  0  0  0
  3  4  2  0  0  0
  3 28  1  0  0  0
  4  5  1  0  0  0
  4 15  1  0  0  0
  5  6  2  0  0  0
  5 14  1  0  0  0
  6 13  1  0  0  0
  6 29  1  0  0  0
  7 11  2  0  0  0
  7 12  1  0  0  0
  7 21  1  0  0  0
  8 26  1  0  0  0
  8 30  1  0  0  0
  9 25  1  0  0  0
  9 26  2  0  0  0
  9 31  1  0  0  0
 10 24  1  0  0  0
 10 25  2  0  0  0
 10 32  1  0  0  0
 12 13  1  0  0  0
 12 18  1  0  0  0
 12 19  1  0  0  0
 16 17  1  0  0  0
 17 18  1  0  0  0
 17 33  1  0  0  0
 17 34  1  0  0  0
 18 35  1  0  0  0
 18 36  1  0  0  0
 19 20  1  0  0  0
 20 37  1  0  0  0
 20 38  1  0  0  0
 20 39  1  0  0  0
 21 22  1  0  0  0
 21 40  1  0  0  0
 22 23  1  0  0  0
 22 27  2  0  0  0
 23 24  2  0  0  0
 23 26  1  0  0  0
 24 41  1  0  0  0
 25 42  1  0  0  0
 27 43  1  0  0  0
M  END
> <s_m_entry_id>
1370

> <s_m_entry_name>
7gji.pdb.1_A_ligand

> <s_pdb_PDB_TITLE>
GROUP DEPOSITION SARS-COV-2 MAIN PROTEASE IN COMPLEX WITH INHIBITORS FROM THE COVID MOONSHOT -- CRYSTAL STRUCTURE OF SARS-COV-2 MAIN PROTEASE IN COMPLEX WITH EDJ-MED-D08626DE-3 (MPRO-P0243)

> <s_pdb_PDB_ID>
7GJI

> <s_m_Source_File>
7gji.pdb.gz

> <s_user_Compound_ID>
EDJ-MED-d08626de-3

> <s_user_Monomer-Dimer>
Dimer

> <s_user_xcode>
Mpro-P0243

$$$$
