7GJJ_ligand
                    3D
 Schrodinger Suite 2021-2.
 57 60  0  0  1  0            999 V2000
    6.6231   -4.4415   26.0661 N   0  0  0  0  0  0
    7.0631   -1.9253   17.4276 N   0  0  0  0  0  0
    5.4080   -6.4734   26.8047 C   0  0  0  0  0  0
    5.4179   -5.2612   25.8626 C   0  0  0  0  0  0
    6.5935   -3.0914   25.6218 C   0  0  0  0  0  0
    7.5592   -2.6147   24.7219 C   0  0  0  0  0  0
    7.4702   -1.3272   24.1961 C   0  0  0  0  0  0
    8.0781   -1.5924   21.7926 C   0  0  0  0  0  0
    7.9899   -2.7493   16.9605 C   0  0  0  0  0  0
   10.2021   -3.8866   17.0777 C   0  0  0  0  0  0
   11.6244   -3.4647   18.9501 C   0  0  0  0  0  0
    6.4362   -0.4945   24.6002 C   0  0  0  0  0  0
    5.4880   -0.9652   25.4831 C   0  0  0  0  0  0
    5.5583   -2.2358   26.0221 C   0  0  0  0  0  0
    5.3868   -9.3475   26.7669 O   0  0  0  0  0  0
    6.7163   -8.8430   26.9120 S   0  0  0  0  0  0
    7.7519   -9.3833   26.0878 O   0  0  0  0  0  0
    7.2202   -8.9985   28.6111 C   0  0  0  0  0  0
    8.6006   -9.5992   28.7421 C   0  0  0  0  0  0
    6.6588   -7.2352   26.6160 N   0  0  0  0  0  0
    7.8676   -5.2160   25.9371 C   0  0  0  0  0  0
    7.8632   -6.4200   26.8792 C   0  0  0  0  0  0
    4.0703    0.0026   25.7846 Cl  0  0  0  0  0  0
    8.4078   -0.8851   23.0932 C   0  0  0  0  0  0
    7.4057   -2.6230   21.7725 O   0  0  0  0  0  0
    8.5889   -1.0174   20.6807 N   0  0  0  0  0  0
    8.4651   -1.4820   19.3554 C   0  0  0  0  0  0
    9.4752   -2.3501   18.8366 C   0  0  0  0  0  0
   10.7072   -2.6085   19.4894 C   0  0  0  0  0  0
   11.3724   -4.1037   17.7453 C   0  0  0  0  0  0
    9.2232   -3.0053   17.6020 C   0  0  0  0  0  0
    7.3140   -1.3079   18.5878 C   0  0  0  0  0  0
    4.5558   -7.1106   26.5683 H   0  0  0  0  0  0
    5.3434   -6.1300   27.8374 H   0  0  0  0  0  0
    5.3839   -5.6051   24.8287 H   0  0  0  0  0  0
    4.5308   -4.6537   26.0442 H   0  0  0  0  0  0
    8.3842   -3.2477   24.4288 H   0  0  0  0  0  0
    7.8262   -3.2765   16.0321 H   0  0  0  0  0  0
   10.0148   -4.3888   16.1400 H   0  0  0  0  0  0
   12.5568   -3.6499   19.4622 H   0  0  0  0  0  0
    6.3779    0.5159   24.2230 H   0  0  0  0  0  0
    4.8275   -2.5719   26.7436 H   0  0  0  0  0  0
    6.5018   -9.6193   29.1474 H   0  0  0  0  0  0
    7.2050   -8.0168   29.0851 H   0  0  0  0  0  0
    8.8651   -9.6746   29.7967 H   0  0  0  0  0  0
    8.6096  -10.5930   28.2938 H   0  0  0  0  0  0
    9.3244   -8.9641   28.2306 H   0  0  0  0  0  0
    8.7189   -4.5760   26.1693 H   0  0  0  0  0  0
    7.9767   -5.5606   24.9086 H   0  0  0  0  0  0
    8.7549   -7.0220   26.7025 H   0  0  0  0  0  0
    7.8470   -6.0723   27.9123 H   0  0  0  0  0  0
    9.4356   -1.1106   23.3778 H   0  0  0  0  0  0
    8.3204    0.1925   22.9531 H   0  0  0  0  0  0
    9.1235   -0.1634   20.7536 H   0  0  0  0  0  0
   10.9143   -2.1156   20.4278 H   0  0  0  0  0  0
   12.1111   -4.7776   17.3358 H   0  0  0  0  0  0
    6.5951   -0.6128   18.9969 H   0  0  0  0  0  0
  1  4  1  0  0  0
  1  5  1  0  0  0
  1 21  1  0  0  0
  2  9  2  0  0  0
  2 32  1  0  0  0
  3  4  1  0  0  0
  3 20  1  0  0  0
  3 33  1  0  0  0
  3 34  1  0  0  0
  4 35  1  0  0  0
  4 36  1  0  0  0
  5  6  1  0  0  0
  5 14  2  0  0  0
  6  7  2  0  0  0
  6 37  1  0  0  0
  7 12  1  0  0  0
  7 24  1  0  0  0
  8 24  1  0  0  0
  8 25  2  0  0  0
  8 26  1  0  0  0
  9 31  1  0  0  0
  9 38  1  0  0  0
 10 30  1  0  0  0
 10 31  2  0  0  0
 10 39  1  0  0  0
 11 29  1  0  0  0
 11 30  2  0  0  0
 11 40  1  0  0  0
 12 13  2  0  0  0
 12 41  1  0  0  0
 13 14  1  0  0  0
 13 23  1  0  0  0
 14 42  1  0  0  0
 15 16  2  0  0  0
 16 17  2  0  0  0
 16 18  1  0  0  0
 16 20  1  0  0  0
 18 19  1  0  0  0
 18 43  1  0  0  0
 18 44  1  0  0  0
 19 45  1  0  0  0
 19 46  1  0  0  0
 19 47  1  0  0  0
 20 22  1  0  0  0
 21 22  1  0  0  0
 21 48  1  0  0  0
 21 49  1  0  0  0
 22 50  1  0  0  0
 22 51  1  0  0  0
 24 52  1  0  0  0
 24 53  1  0  0  0
 26 27  1  0  0  0
 26 54  1  0  0  0
 27 28  1  0  0  0
 27 32  2  0  0  0
 28 29  2  0  0  0
 28 31  1  0  0  0
 29 55  1  0  0  0
 30 56  1  0  0  0
 32 57  1  0  0  0
M  END
> <s_m_entry_id>
1372

> <s_m_entry_name>
7gjj.pdb.1_A_ligand

> <s_pdb_PDB_TITLE>
GROUP DEPOSITION SARS-COV-2 MAIN PROTEASE IN COMPLEX WITH INHIBITORS FROM THE COVID MOONSHOT -- CRYSTAL STRUCTURE OF SARS-COV-2 MAIN PROTEASE IN COMPLEX WITH LON-WEI-9739A092-9 (MPRO-P0394)

> <s_pdb_PDB_ID>
7GJJ

> <s_m_Source_File>
7gjj.pdb.gz

> <s_user_Compound_ID>
LON-WEI-9739a092-9

> <s_user_Monomer-Dimer>
Dimer

> <s_user_xcode>
Mpro-P0394

$$$$
