7GJK_ligand
                    3D
 Schrodinger Suite 2021-2.
 50 53  0  0  1  0            999 V2000
    8.4086   -1.1310   21.0517 N   0  0  0  0  0  0
    9.5910   -1.7228   23.8730 C   0  0  0  0  0  0
    9.3598   -3.0694   24.5238 C   0  0  0  0  0  0
    7.3098   -2.2156   25.5543 C   0  0  0  0  0  0
    6.2546   -2.4888   26.4222 C   0  0  0  0  0  0
    5.0532   -1.8162   26.2935 C   0  0  0  0  0  0
    5.9606   -0.5380   24.4634 C   0  0  0  0  0  0
    8.1912   -1.5764   19.7326 C   0  0  0  0  0  0
    7.6801   -2.5873   17.2215 C   0  0  0  0  0  0
    9.8938   -3.7331   17.1973 C   0  0  0  0  0  0
   10.4377   -2.6938   19.7139 C   0  0  0  0  0  0
    9.2018   -2.3655   19.1038 C   0  0  0  0  0  0
    7.0968   -2.6102   22.1546 O   0  0  0  0  0  0
    7.8575   -1.6502   22.1762 C   0  0  0  0  0  0
    8.2662   -1.0089   23.5155 C   0  0  1  0  0  0
    7.1597   -1.2416   24.5564 C   0  0  0  0  0  0
    4.9260   -0.8462   25.3245 C   0  0  0  0  0  0
    3.4053   -0.0194   25.1427 Cl  0  0  0  0  0  0
    8.4746   -2.9234   25.6642 N   0  0  0  0  0  0
    8.4920    0.5168   23.3945 C   0  0  0  0  0  0
    8.9681    1.1562   24.6840 C   0  0  0  0  0  0
    8.8501    2.5346   24.8531 O   0  0  0  0  0  0
    9.4554    2.9574   26.0648 C   0  0  0  0  0  0
   11.3361   -3.5103   19.0877 C   0  0  0  0  0  0
   11.0629   -4.0303   17.8339 C   0  0  0  0  0  0
    8.9299   -2.8969   17.8137 C   0  0  0  0  0  0
    6.7470   -1.8450   17.7993 N   0  0  0  0  0  0
    7.0097   -1.3641   19.0228 C   0  0  0  0  0  0
    9.0274   -0.3520   21.2262 H   0  0  0  0  0  0
   10.1871   -1.8543   22.9699 H   0  0  0  0  0  0
   10.1734   -1.0913   24.5439 H   0  0  0  0  0  0
   10.3132   -3.4813   24.8547 H   0  0  0  0  0  0
    8.9107   -3.7499   23.8004 H   0  0  0  0  0  0
    6.3728   -3.2288   27.1999 H   0  0  0  0  0  0
    4.2284   -2.0540   26.9488 H   0  0  0  0  0  0
    5.8470    0.2400   23.7230 H   0  0  0  0  0  0
    7.4406   -2.9639   16.2380 H   0  0  0  0  0  0
    9.6963   -4.1359   16.2148 H   0  0  0  0  0  0
   10.6812   -2.2970   20.6884 H   0  0  0  0  0  0
    8.7251   -3.3501   26.5447 H   0  0  0  0  0  0
    7.5667    0.9953   23.0735 H   0  0  0  0  0  0
    9.2160    0.7139   22.6039 H   0  0  0  0  0  0
   10.0028    0.8641   24.8637 H   0  0  0  0  0  0
    8.4922    0.6535   25.5260 H   0  0  0  0  0  0
    9.3469    4.0371   26.1683 H   0  0  0  0  0  0
    8.9707    2.4618   26.9060 H   0  0  0  0  0  0
   10.5142    2.6987   26.0522 H   0  0  0  0  0  0
   12.2704   -3.7560   19.5705 H   0  0  0  0  0  0
   11.7864   -4.6772   17.3602 H   0  0  0  0  0  0
    6.2182   -0.7712   19.4569 H   0  0  0  0  0  0
  1  8  1  0  0  0
  1 14  1  0  0  0
  1 29  1  0  0  0
  2  3  1  0  0  0
  2 15  1  0  0  0
  2 30  1  0  0  0
  2 31  1  0  0  0
  3 19  1  0  0  0
  3 32  1  0  0  0
  3 33  1  0  0  0
  4  5  1  0  0  0
  4 16  2  0  0  0
  4 19  1  0  0  0
  5  6  2  0  0  0
  5 34  1  0  0  0
  6 17  1  0  0  0
  6 35  1  0  0  0
  7 16  1  0  0  0
  7 17  2  0  0  0
  7 36  1  0  0  0
  8 12  1  0  0  0
  8 28  2  0  0  0
  9 26  1  0  0  0
  9 27  2  0  0  0
  9 37  1  0  0  0
 10 25  1  0  0  0
 10 26  2  0  0  0
 10 38  1  0  0  0
 11 12  2  0  0  0
 11 24  1  0  0  0
 11 39  1  0  0  0
 12 26  1  0  0  0
 13 14  2  0  0  0
 14 15  1  0  0  0
 15 16  1  0  0  0
 15 20  1  0  0  0
 17 18  1  0  0  0
 19 40  1  0  0  0
 20 21  1  0  0  0
 20 41  1  0  0  0
 20 42  1  0  0  0
 21 22  1  0  0  0
 21 43  1  0  0  0
 21 44  1  0  0  0
 22 23  1  0  0  0
 23 45  1  0  0  0
 23 46  1  0  0  0
 23 47  1  0  0  0
 24 25  2  0  0  0
 24 48  1  0  0  0
 25 49  1  0  0  0
 27 28  1  0  0  0
 28 50  1  0  0  0
M  END
> <s_m_entry_id>
1374

> <s_m_entry_name>
7gjk.pdb.1_A_ligand

> <s_pdb_PDB_TITLE>
GROUP DEPOSITION SARS-COV-2 MAIN PROTEASE IN COMPLEX WITH INHIBITORS FROM THE COVID MOONSHOT -- CRYSTAL STRUCTURE OF SARS-COV-2 MAIN PROTEASE IN COMPLEX WITH RAL-THA-4AA06B95-7 (MPRO-P0578)

> <s_pdb_PDB_ID>
7GJK

> <s_m_Source_File>
7gjk.pdb.gz

> <s_user_Compound_ID>
RAL-THA-4aa06b95-7

> <s_user_Monomer-Dimer>
Dimer

> <s_user_xcode>
Mpro-P0578

$$$$
