7GJL_ligand
                    3D
 Schrodinger Suite 2021-2.
 41 44  0  0  1  0            999 V2000
    7.2075   -2.0954   17.2735 N   0  0  0  0  0  0
    6.3198   -0.0712   24.1761 C   0  0  0  0  0  0
    5.6508   -0.5157   25.2980 C   0  0  0  0  0  0
    8.2039   -0.1829   22.5248 C   0  0  1  0  0  0
    9.5631    0.4969   22.6934 C   0  0  0  0  0  0
   10.0099    1.1148   21.3704 C   0  0  0  0  0  0
    8.3100   -1.2579   21.4552 C   0  0  0  0  0  0
    8.0795   -2.9519   16.7660 C   0  0  0  0  0  0
   10.2439   -4.1853   16.7961 C   0  0  0  0  0  0
   11.7546   -3.8422   18.6174 C   0  0  0  0  0  0
    7.8198   -2.3667   21.6095 O   0  0  0  0  0  0
    7.5225   -0.6535   23.7988 C   0  0  0  0  0  0
    8.0520   -1.6683   24.5845 C   0  0  0  0  0  0
    7.3770   -2.1265   25.6988 C   0  0  0  0  0  0
    4.1854    0.2805   25.7671 Cl  0  0  0  0  0  0
    6.1674   -1.5583   26.0507 C   0  0  0  0  0  0
    5.2976   -2.2046   27.3973 Cl  0  0  0  0  0  0
    8.9536   -0.9086   20.3029 N   0  0  0  0  0  0
   10.0371    0.0941   20.2308 C   0  0  0  0  0  0
    8.7390   -1.6601   19.1030 C   0  0  0  0  0  0
    9.6711   -2.6014   18.5726 C   0  0  0  0  0  0
   10.9098   -2.9326   19.1855 C   0  0  0  0  0  0
   11.4239   -4.4632   17.4233 C   0  0  0  0  0  0
    9.3320   -3.2566   17.3546 C   0  0  0  0  0  0
    7.5502   -1.4703   18.4071 C   0  0  0  0  0  0
    5.9083    0.7341   23.5857 H   0  0  0  0  0  0
    7.5464    0.5797   22.1072 H   0  0  0  0  0  0
   10.2993   -0.2388   23.0175 H   0  0  0  0  0  0
    9.4874    1.2768   23.4512 H   0  0  0  0  0  0
   11.0019    1.5503   21.4905 H   0  0  0  0  0  0
    9.3395    1.9333   21.1080 H   0  0  0  0  0  0
    7.8546   -3.4697   15.8453 H   0  0  0  0  0  0
    9.9986   -4.6751   15.8653 H   0  0  0  0  0  0
   12.6907   -4.0839   19.0987 H   0  0  0  0  0  0
    9.0036   -2.1098   24.3272 H   0  0  0  0  0  0
    7.7947   -2.9266   26.2921 H   0  0  0  0  0  0
   11.0009   -0.4150   20.2242 H   0  0  0  0  0  0
    9.9830    0.6168   19.2758 H   0  0  0  0  0  0
   11.1789   -2.4527   20.1148 H   0  0  0  0  0  0
   12.1117   -5.1740   16.9895 H   0  0  0  0  0  0
    6.8777   -0.7520   18.8522 H   0  0  0  0  0  0
  1  8  2  0  0  0
  1 25  1  0  0  0
  2  3  1  0  0  0
  2 12  2  0  0  0
  2 26  1  0  0  0
  3 15  1  0  0  0
  3 16  2  0  0  0
  4  5  1  0  0  0
  4  7  1  0  0  0
  4 12  1  0  0  0
  4 27  1  0  0  0
  5  6  1  0  0  0
  5 28  1  0  0  0
  5 29  1  0  0  0
  6 19  1  0  0  0
  6 30  1  0  0  0
  6 31  1  0  0  0
  7 11  2  0  0  0
  7 18  1  0  0  0
  8 24  1  0  0  0
  8 32  1  0  0  0
  9 23  1  0  0  0
  9 24  2  0  0  0
  9 33  1  0  0  0
 10 22  1  0  0  0
 10 23  2  0  0  0
 10 34  1  0  0  0
 12 13  1  0  0  0
 13 14  2  0  0  0
 13 35  1  0  0  0
 14 16  1  0  0  0
 14 36  1  0  0  0
 16 17  1  0  0  0
 18 19  1  0  0  0
 18 20  1  0  0  0
 19 37  1  0  0  0
 19 38  1  0  0  0
 20 21  1  0  0  0
 20 25  2  0  0  0
 21 22  2  0  0  0
 21 24  1  0  0  0
 22 39  1  0  0  0
 23 40  1  0  0  0
 25 41  1  0  0  0
M  END
> <s_m_entry_id>
1376

> <s_m_entry_name>
7gjl.pdb.1_A_ligand

> <s_pdb_PDB_TITLE>
GROUP DEPOSITION SARS-COV-2 MAIN PROTEASE IN COMPLEX WITH INHIBITORS FROM THE COVID MOONSHOT -- CRYSTAL STRUCTURE OF SARS-COV-2 MAIN PROTEASE IN COMPLEX WITH ALP-UNI-3735E77E-1 (MPRO-P0600)

> <s_pdb_PDB_ID>
7GJL

> <s_m_Source_File>
7gjl.pdb.gz

> <s_user_Compound_ID>
ALP-UNI-3735e77e-1

> <s_user_Monomer-Dimer>
Dimer

> <s_user_xcode>
Mpro-P0600

$$$$
