7GJM_ligand
                    3D
 Schrodinger Suite 2021-2.
 42 45  0  0  1  0            999 V2000
    6.9828   -2.0163   17.5467 N   0  0  0  0  0  0
    6.4600   -2.2954   26.3320 C   0  0  0  0  0  0
    5.3225   -1.5075   26.3068 C   0  0  0  0  0  0
    5.1827   -0.5558   25.3186 C   0  0  0  0  0  0
    6.1695   -0.3406   24.3755 C   0  0  0  0  0  0
    7.3125   -1.1406   24.3689 C   0  0  0  0  0  0
    7.9960   -1.7687   21.9687 C   0  0  0  0  0  0
    7.9405   -2.7673   17.0208 C   0  0  0  0  0  0
   10.1693   -3.8801   17.0882 C   0  0  0  0  0  0
   11.5594   -3.5794   19.0113 C   0  0  0  0  0  0
    7.2991   -2.7829   21.9753 O   0  0  0  0  0  0
    8.3430   -1.0330   23.2612 C   0  0  2  0  0  0
    3.6600    0.2777   25.1514 Cl  0  0  0  0  0  0
    7.4420   -2.1118   25.3679 C   0  0  0  0  0  0
    8.5609   -2.9024   25.4900 O   0  0  0  0  0  0
    9.4878   -2.9440   24.3888 C   0  0  0  0  0  0
    9.7047   -1.5896   23.7444 C   0  0  2  0  0  0
   10.4039   -0.6307   24.7062 C   0  0  0  0  0  0
    8.5117   -1.2206   20.8417 N   0  0  0  0  0  0
    8.3606   -1.6759   19.5135 C   0  0  0  0  0  0
    9.3982   -2.4777   18.9412 C   0  0  0  0  0  0
   10.6256   -2.7687   19.5949 C   0  0  0  0  0  0
   11.3307   -4.1356   17.7608 C   0  0  0  0  0  0
    9.1735   -3.0468   17.6574 C   0  0  0  0  0  0
    7.2040   -1.4874   18.7568 C   0  0  0  0  0  0
    6.5794   -3.0472   27.0982 H   0  0  0  0  0  0
    4.5561   -1.6415   27.0560 H   0  0  0  0  0  0
    6.0555    0.4464   23.6446 H   0  0  0  0  0  0
    7.8050   -3.2105   16.0453 H   0  0  0  0  0  0
   10.0030   -4.3145   16.1135 H   0  0  0  0  0  0
   12.4858   -3.7924   19.5241 H   0  0  0  0  0  0
    8.4747    0.0227   23.0239 H   0  0  0  0  0  0
    9.1277   -3.6482   23.6389 H   0  0  0  0  0  0
   10.4437   -3.3375   24.7349 H   0  0  0  0  0  0
   10.3456   -1.7256   22.8732 H   0  0  0  0  0  0
   11.3552   -1.0601   25.0206 H   0  0  0  0  0  0
   10.5830    0.3207   24.2053 H   0  0  0  0  0  0
    9.7730   -0.4676   25.5800 H   0  0  0  0  0  0
    9.0791   -0.3871   20.8995 H   0  0  0  0  0  0
   10.8158   -2.3388   20.5673 H   0  0  0  0  0  0
   12.0807   -4.7755   17.3196 H   0  0  0  0  0  0
    6.4545   -0.8610   19.2176 H   0  0  0  0  0  0
  1  8  2  0  0  0
  1 25  1  0  0  0
  2  3  1  0  0  0
  2 14  2  0  0  0
  2 26  1  0  0  0
  3  4  2  0  0  0
  3 27  1  0  0  0
  4  5  1  0  0  0
  4 13  1  0  0  0
  5  6  2  0  0  0
  5 28  1  0  0  0
  6 12  1  0  0  0
  6 14  1  0  0  0
  7 11  2  0  0  0
  7 12  1  0  0  0
  7 19  1  0  0  0
  8 24  1  0  0  0
  8 29  1  0  0  0
  9 23  1  0  0  0
  9 24  2  0  0  0
  9 30  1  0  0  0
 10 22  1  0  0  0
 10 23  2  0  0  0
 10 31  1  0  0  0
 12 17  1  0  0  0
 12 32  1  0  0  0
 14 15  1  0  0  0
 15 16  1  0  0  0
 16 17  1  0  0  0
 16 33  1  0  0  0
 16 34  1  0  0  0
 17 18  1  0  0  0
 17 35  1  0  0  0
 18 36  1  0  0  0
 18 37  1  0  0  0
 18 38  1  0  0  0
 19 20  1  0  0  0
 19 39  1  0  0  0
 20 21  1  0  0  0
 20 25  2  0  0  0
 21 22  2  0  0  0
 21 24  1  0  0  0
 22 40  1  0  0  0
 23 41  1  0  0  0
 25 42  1  0  0  0
M  END
> <s_m_entry_id>
1378

> <s_m_entry_name>
7gjm.pdb.1_A_ligand

> <s_pdb_PDB_TITLE>
GROUP DEPOSITION SARS-COV-2 MAIN PROTEASE IN COMPLEX WITH INHIBITORS FROM THE COVID MOONSHOT -- CRYSTAL STRUCTURE OF SARS-COV-2 MAIN PROTEASE IN COMPLEX WITH EDJ-MED-E4B030D8-11 (MPRO-P0601)

> <s_pdb_PDB_ID>
7GJM

> <s_m_Source_File>
7gjm.pdb.gz

> <s_user_Compound_ID>
EDJ-MED-e4b030d8-11

> <s_user_Monomer-Dimer>
Dimer

> <s_user_xcode>
Mpro-P0601

$$$$
