7GJN_ligand
                    3D
 Schrodinger Suite 2021-2.
 43 46  0  0  1  0            999 V2000
    6.8563   -1.8094   17.7176 N   0  0  0  0  0  0
    7.3394   -1.7070   25.6255 C   0  0  0  0  0  0
    6.3249   -1.7401   26.5684 C   0  0  0  0  0  0
    5.1365   -1.0805   26.3944 C   0  0  0  0  0  0
    4.9830   -0.3886   25.2170 C   0  0  0  0  0  0
    5.9459   -0.3203   24.2376 C   0  0  0  0  0  0
    7.9410   -1.6365   22.1445 C   0  0  0  0  0  0
    7.7891   -2.5897   17.1910 C   0  0  0  0  0  0
    9.9713   -3.7868   17.2657 C   0  0  0  0  0  0
   11.3393   -3.5818   19.2155 C   0  0  0  0  0  0
    7.3088   -2.6867   22.1609 O   0  0  0  0  0  0
    8.2841   -0.8398   23.4355 C   0  0  1  0  0  0
    7.1510   -0.9910   24.4259 C   0  0  0  0  0  0
    3.7985    0.2412   24.9919 F   0  0  0  0  0  0
    6.5307   -2.4457   27.7035 F   0  0  0  0  0  0
    8.5192   -2.3241   25.9456 O   0  0  0  0  0  0
    9.3378   -2.6602   24.8130 C   0  0  0  0  0  0
    9.6007   -1.4466   23.9471 C   0  0  0  0  0  0
    8.4298    0.5289   23.0343 O   0  0  0  0  0  0
    8.8488    1.4633   24.0363 C   0  0  0  0  0  0
    8.4080   -1.0717   21.0122 N   0  0  0  0  0  0
    8.2242   -1.5474   19.7012 C   0  0  0  0  0  0
    9.2325   -2.3864   19.1320 C   0  0  0  0  0  0
   10.4319   -2.7428   19.8014 C   0  0  0  0  0  0
   11.1092   -4.1014   17.9503 C   0  0  0  0  0  0
    9.0036   -2.9229   17.8356 C   0  0  0  0  0  0
    7.0842   -1.3045   18.9385 C   0  0  0  0  0  0
    4.3784   -1.1216   27.1627 H   0  0  0  0  0  0
    5.7616    0.2481   23.3378 H   0  0  0  0  0  0
    7.6458   -3.0153   16.2088 H   0  0  0  0  0  0
    9.8027   -4.1972   16.2810 H   0  0  0  0  0  0
   12.2465   -3.8463   19.7385 H   0  0  0  0  0  0
    8.8400   -3.4277   24.2205 H   0  0  0  0  0  0
   10.2862   -3.0707   25.1599 H   0  0  0  0  0  0
   10.1443   -0.6992   24.5251 H   0  0  0  0  0  0
   10.2218   -1.7338   23.0986 H   0  0  0  0  0  0
    8.9183    2.4592   23.5987 H   0  0  0  0  0  0
    8.1233    1.4742   24.8498 H   0  0  0  0  0  0
    9.8240    1.1683   24.4238 H   0  0  0  0  0  0
    8.9496   -0.2205   21.0587 H   0  0  0  0  0  0
   10.6239   -2.3425   20.7860 H   0  0  0  0  0  0
   11.8410   -4.7609   17.5076 H   0  0  0  0  0  0
    6.3535   -0.6566   19.3999 H   0  0  0  0  0  0
  1  8  2  0  0  0
  1 27  1  0  0  0
  2  3  1  0  0  0
  2 13  2  0  0  0
  2 16  1  0  0  0
  3  4  2  0  0  0
  3 15  1  0  0  0
  4  5  1  0  0  0
  4 28  1  0  0  0
  5  6  2  0  0  0
  5 14  1  0  0  0
  6 13  1  0  0  0
  6 29  1  0  0  0
  7 11  2  0  0  0
  7 12  1  0  0  0
  7 21  1  0  0  0
  8 26  1  0  0  0
  8 30  1  0  0  0
  9 25  1  0  0  0
  9 26  2  0  0  0
  9 31  1  0  0  0
 10 24  1  0  0  0
 10 25  2  0  0  0
 10 32  1  0  0  0
 12 13  1  0  0  0
 12 18  1  0  0  0
 12 19  1  0  0  0
 16 17  1  0  0  0
 17 18  1  0  0  0
 17 33  1  0  0  0
 17 34  1  0  0  0
 18 35  1  0  0  0
 18 36  1  0  0  0
 19 20  1  0  0  0
 20 37  1  0  0  0
 20 38  1  0  0  0
 20 39  1  0  0  0
 21 22  1  0  0  0
 21 40  1  0  0  0
 22 23  1  0  0  0
 22 27  2  0  0  0
 23 24  2  0  0  0
 23 26  1  0  0  0
 24 41  1  0  0  0
 25 42  1  0  0  0
 27 43  1  0  0  0
M  END
> <s_m_entry_id>
1430

> <s_m_entry_name>
_ligand

> <s_user_Compound_ID>
EDJ-MED-37aac4bd-4

> <s_user_Monomer-Dimer>
Dimer

> <s_user_xcode>
Mpro-P0602

$$$$
