7GJO_ligand
                    3D
 Schrodinger Suite 2021-2.
 39 42  0  0  1  0            999 V2000
    6.9423   -2.0221   17.0442 N   0  0  0  0  0  0
   10.0396   -0.5983   23.1028 C   0  0  0  0  0  0
    8.5690   -0.4698   22.6758 C   0  0  1  0  0  0
    8.1830   -1.4375   21.5548 C   0  0  0  0  0  0
    8.1698   -1.4017   19.0459 C   0  0  0  0  0  0
    7.1346   -1.2592   18.1254 C   0  0  0  0  0  0
    8.9877   -3.1904   17.5803 C   0  0  0  0  0  0
   11.3583   -3.3870   19.0413 C   0  0  0  0  0  0
    9.1588   -2.3999   18.7541 C   0  0  0  0  0  0
    6.4807   -0.1874   24.0853 C   0  0  0  0  0  0
    4.1798    0.2541   25.4308 Cl  0  0  0  0  0  0
    5.7232   -0.4962   25.1955 C   0  0  0  0  0  0
    6.1854   -1.4277   26.1014 C   0  0  0  0  0  0
    5.4028   -1.7699   27.1482 F   0  0  0  0  0  0
    7.7152   -0.7987   23.8808 C   0  0  0  0  0  0
    8.1619   -1.7216   24.8364 C   0  0  0  0  0  0
    7.3959   -2.0511   25.9419 C   0  0  0  0  0  0
   10.2949   -1.9643   23.6988 C   0  0  0  0  0  0
    9.3958   -2.3267   24.7826 O   0  0  0  0  0  0
    7.9324   -2.6241   21.7702 O   0  0  0  0  0  0
    8.0258   -0.8612   20.3431 N   0  0  0  0  0  0
   10.3766   -2.5373   19.4708 C   0  0  0  0  0  0
   11.1825   -4.1515   17.8981 C   0  0  0  0  0  0
   10.0245   -4.0709   17.1817 C   0  0  0  0  0  0
    7.8391   -2.9581   16.7931 C   0  0  0  0  0  0
   10.2715    0.1691   23.8414 H   0  0  0  0  0  0
   10.6835   -0.4547   22.2351 H   0  0  0  0  0  0
    8.3705    0.5537   22.3575 H   0  0  0  0  0  0
    6.4530   -0.4504   18.3437 H   0  0  0  0  0  0
   12.2825   -3.4679   19.5943 H   0  0  0  0  0  0
    6.1176    0.5330   23.3672 H   0  0  0  0  0  0
    7.7289   -2.7777   26.6683 H   0  0  0  0  0  0
   11.3250   -2.0177   24.0512 H   0  0  0  0  0  0
   10.2356   -2.7176   22.9133 H   0  0  0  0  0  0
    7.7631    0.1118   20.2768 H   0  0  0  0  0  0
   10.5206   -1.9561   20.3697 H   0  0  0  0  0  0
   11.9660   -4.8177   17.5682 H   0  0  0  0  0  0
    9.9020   -4.6865   16.3028 H   0  0  0  0  0  0
    7.7178   -3.6066   15.9380 H   0  0  0  0  0  0
  1  6  1  0  0  0
  1 25  2  0  0  0
  2  3  1  0  0  0
  2 18  1  0  0  0
  2 26  1  0  0  0
  2 27  1  0  0  0
  3  4  1  0  0  0
  3 15  1  0  0  0
  3 28  1  0  0  0
  4 20  2  0  0  0
  4 21  1  0  0  0
  5  6  2  0  0  0
  5  9  1  0  0  0
  5 21  1  0  0  0
  6 29  1  0  0  0
  7  9  1  0  0  0
  7 24  2  0  0  0
  7 25  1  0  0  0
  8 22  1  0  0  0
  8 23  2  0  0  0
  8 30  1  0  0  0
  9 22  2  0  0  0
 10 12  1  0  0  0
 10 15  2  0  0  0
 10 31  1  0  0  0
 11 12  1  0  0  0
 12 13  2  0  0  0
 13 14  1  0  0  0
 13 17  1  0  0  0
 15 16  1  0  0  0
 16 17  2  0  0  0
 16 19  1  0  0  0
 17 32  1  0  0  0
 18 19  1  0  0  0
 18 33  1  0  0  0
 18 34  1  0  0  0
 21 35  1  0  0  0
 22 36  1  0  0  0
 23 24  1  0  0  0
 23 37  1  0  0  0
 24 38  1  0  0  0
 25 39  1  0  0  0
M  END
> <s_m_entry_id>
1380

> <s_m_entry_name>
7gjo.pdb.1_A_ligand

> <s_pdb_PDB_TITLE>
GROUP DEPOSITION SARS-COV-2 MAIN PROTEASE IN COMPLEX WITH INHIBITORS FROM THE COVID MOONSHOT -- CRYSTAL STRUCTURE OF SARS-COV-2 MAIN PROTEASE IN COMPLEX WITH MAT-POS-A13804F0-3 (MPRO-P0607)

> <s_pdb_PDB_ID>
7GJO

> <s_m_Source_File>
7gjo.pdb.gz

> <s_user_Compound_ID>
MAT-POS-a13804f0-3

> <s_user_Monomer-Dimer>
Dimer

> <s_user_xcode>
Mpro-P0607

$$$$
