7GJP_ligand
                    3D
 Schrodinger Suite 2021-2.
 43 46  0  0  1  0            999 V2000
    6.9311   -1.8970   17.4650 N   0  0  0  0  0  0
    7.7346   -1.9740   25.4804 C   0  0  0  0  0  0
    6.8308   -2.1040   26.5182 C   0  0  0  0  0  0
    5.6565   -1.3972   26.4412 C   0  0  0  0  0  0
    5.3624   -0.5873   25.3629 C   0  0  0  0  0  0
    6.2749   -0.4521   24.3347 C   0  0  0  0  0  0
    7.9909   -1.7329   21.9231 C   0  0  0  0  0  0
    7.8613   -2.6891   16.9546 C   0  0  0  0  0  0
   10.0369   -3.9040   17.0585 C   0  0  0  0  0  0
   11.3925   -3.6918   19.0162 C   0  0  0  0  0  0
    7.2918   -2.7411   21.9415 O   0  0  0  0  0  0
    8.4780   -1.0371   23.2427 C   0  0  1  0  0  0
    7.4804   -1.1473   24.3762 C   0  0  0  0  0  0
    3.7997    0.1528   25.2316 Cl  0  0  0  0  0  0
    4.7482   -1.5233   27.4353 F   0  0  0  0  0  0
    8.8983   -2.6907   25.6195 O   0  0  0  0  0  0
    9.5668   -2.9922   24.3822 C   0  0  0  0  0  0
    9.8096   -1.7351   23.5733 C   0  0  0  0  0  0
    8.6202    0.3384   22.8505 O   0  0  0  0  0  0
    9.2695    1.2152   23.7799 C   0  0  0  0  0  0
    8.4512   -1.1649   20.7861 N   0  0  0  0  0  0
    8.2809   -1.6386   19.4673 C   0  0  0  0  0  0
    9.2902   -2.4882   18.9101 C   0  0  0  0  0  0
   10.4843   -2.8456   19.5889 C   0  0  0  0  0  0
   11.1690   -4.2203   17.7532 C   0  0  0  0  0  0
    9.0667   -3.0319   17.6150 C   0  0  0  0  0  0
    7.1499   -1.3917   18.6869 C   0  0  0  0  0  0
    7.0590   -2.7467   27.3557 H   0  0  0  0  0  0
    6.0534    0.1934   23.4975 H   0  0  0  0  0  0
    7.7252   -3.1193   15.9734 H   0  0  0  0  0  0
    9.8732   -4.3190   16.0749 H   0  0  0  0  0  0
   12.2950   -3.9553   19.5477 H   0  0  0  0  0  0
    8.9592   -3.6859   23.8011 H   0  0  0  0  0  0
   10.5197   -3.4774   24.5935 H   0  0  0  0  0  0
   10.4447   -1.0552   24.1411 H   0  0  0  0  0  0
   10.3239   -1.9929   22.6474 H   0  0  0  0  0  0
    9.3116    2.2213   23.3624 H   0  0  0  0  0  0
    8.7095    1.2336   24.7149 H   0  0  0  0  0  0
   10.2819    0.8587   23.9702 H   0  0  0  0  0  0
    8.9812   -0.3061   20.8292 H   0  0  0  0  0  0
   10.6705   -2.4387   20.5718 H   0  0  0  0  0  0
   11.8998   -4.8873   17.3200 H   0  0  0  0  0  0
    6.4191   -0.7380   19.1397 H   0  0  0  0  0  0
  1  8  2  0  0  0
  1 27  1  0  0  0
  2  3  1  0  0  0
  2 13  2  0  0  0
  2 16  1  0  0  0
  3  4  2  0  0  0
  3 28  1  0  0  0
  4  5  1  0  0  0
  4 15  1  0  0  0
  5  6  2  0  0  0
  5 14  1  0  0  0
  6 13  1  0  0  0
  6 29  1  0  0  0
  7 11  2  0  0  0
  7 12  1  0  0  0
  7 21  1  0  0  0
  8 26  1  0  0  0
  8 30  1  0  0  0
  9 25  1  0  0  0
  9 26  2  0  0  0
  9 31  1  0  0  0
 10 24  1  0  0  0
 10 25  2  0  0  0
 10 32  1  0  0  0
 12 13  1  0  0  0
 12 18  1  0  0  0
 12 19  1  0  0  0
 16 17  1  0  0  0
 17 18  1  0  0  0
 17 33  1  0  0  0
 17 34  1  0  0  0
 18 35  1  0  0  0
 18 36  1  0  0  0
 19 20  1  0  0  0
 20 37  1  0  0  0
 20 38  1  0  0  0
 20 39  1  0  0  0
 21 22  1  0  0  0
 21 40  1  0  0  0
 22 23  1  0  0  0
 22 27  2  0  0  0
 23 24  2  0  0  0
 23 26  1  0  0  0
 24 41  1  0  0  0
 25 42  1  0  0  0
 27 43  1  0  0  0
M  END
> <s_m_entry_id>
1382

> <s_m_entry_name>
7gjp.pdb.1_A_ligand

> <s_pdb_PDB_TITLE>
GROUP DEPOSITION SARS-COV-2 MAIN PROTEASE IN COMPLEX WITH INHIBITORS FROM THE COVID MOONSHOT -- CRYSTAL STRUCTURE OF SARS-COV-2 MAIN PROTEASE IN COMPLEX WITH ALP-POS-FE871B40-11 (MPRO-P0626)

> <s_pdb_PDB_ID>
7GJP

> <s_m_Source_File>
7gjp.pdb.gz

> <s_user_Compound_ID>
ALP-POS-fe871b40-11

> <s_user_Monomer-Dimer>
Dimer

> <s_user_xcode>
Mpro-P0626

$$$$
