7GJQ_ligand
                    3D
 Schrodinger Suite 2021-2.
 39 42  0  0  1  0            999 V2000
    6.9012   -1.9825   17.4315 N   0  0  0  0  0  0
   10.0546   -2.3582   23.9181 C   0  0  0  0  0  0
    9.7914   -0.9107   23.5346 C   0  0  0  0  0  0
    8.3328   -0.7130   23.1058 C   0  0  1  0  0  0
    7.9873   -1.5470   21.8697 C   0  0  0  0  0  0
    8.2620   -1.5460   19.3953 C   0  0  0  0  0  0
    7.8492   -2.7798   16.9657 C   0  0  0  0  0  0
   11.2147   -4.1318   17.8167 C   0  0  0  0  0  0
   10.5073   -2.6580   19.5630 C   0  0  0  0  0  0
    7.3621   -0.9925   24.2359 C   0  0  0  0  0  0
    7.3736   -2.6125   21.9492 O   0  0  0  0  0  0
    9.0966   -2.8800   25.3558 S   0  0  0  0  0  0
    7.5966   -1.9752   25.2052 C   0  0  0  0  0  0
    6.6365   -2.2589   26.1760 C   0  0  0  0  0  0
    5.4436   -1.5603   26.1953 C   0  0  0  0  0  0
    6.1653   -0.2826   24.2900 C   0  0  0  0  0  0
    5.2227   -0.5866   25.2498 C   0  0  0  0  0  0
    3.6796    0.2192   25.2008 Cl  0  0  0  0  0  0
    8.4057   -1.0123   20.6961 N   0  0  0  0  0  0
    9.2909   -2.3957   18.8825 C   0  0  0  0  0  0
   11.4381   -3.5070   19.0346 C   0  0  0  0  0  0
   10.0617   -3.9083   17.1216 C   0  0  0  0  0  0
    9.0702   -3.0368   17.6321 C   0  0  0  0  0  0
    7.1165   -1.3873   18.6112 C   0  0  0  0  0  0
   11.1170   -2.4912   24.1229 H   0  0  0  0  0  0
    9.8208   -3.0052   23.0726 H   0  0  0  0  0  0
   10.4521   -0.6263   22.7157 H   0  0  0  0  0  0
   10.0105   -0.2645   24.3847 H   0  0  0  0  0  0
    8.2159    0.3354   22.8313 H   0  0  0  0  0  0
    7.7151   -3.2826   16.0193 H   0  0  0  0  0  0
   11.9570   -4.8026   17.4097 H   0  0  0  0  0  0
   10.7079   -2.1839   20.5124 H   0  0  0  0  0  0
    6.8244   -3.0251   26.9137 H   0  0  0  0  0  0
    4.6999   -1.7822   26.9464 H   0  0  0  0  0  0
    5.9738    0.5078   23.5794 H   0  0  0  0  0  0
    8.8858   -0.1237   20.6886 H   0  0  0  0  0  0
   12.3551   -3.6898   19.5751 H   0  0  0  0  0  0
    9.8994   -4.3983   16.1729 H   0  0  0  0  0  0
    6.3713   -0.7244   19.0256 H   0  0  0  0  0  0
  1  7  1  0  0  0
  1 24  2  0  0  0
  2  3  1  0  0  0
  2 12  1  0  0  0
  2 25  1  0  0  0
  2 26  1  0  0  0
  3  4  1  0  0  0
  3 27  1  0  0  0
  3 28  1  0  0  0
  4  5  1  0  0  0
  4 10  1  0  0  0
  4 29  1  0  0  0
  5 11  2  0  0  0
  5 19  1  0  0  0
  6 19  1  0  0  0
  6 20  2  0  0  0
  6 24  1  0  0  0
  7 23  2  0  0  0
  7 30  1  0  0  0
  8 21  1  0  0  0
  8 22  2  0  0  0
  8 31  1  0  0  0
  9 20  1  0  0  0
  9 21  2  0  0  0
  9 32  1  0  0  0
 10 13  1  0  0  0
 10 16  2  0  0  0
 12 13  1  0  0  0
 13 14  2  0  0  0
 14 15  1  0  0  0
 14 33  1  0  0  0
 15 17  2  0  0  0
 15 34  1  0  0  0
 16 17  1  0  0  0
 16 35  1  0  0  0
 17 18  1  0  0  0
 19 36  1  0  0  0
 20 23  1  0  0  0
 21 37  1  0  0  0
 22 23  1  0  0  0
 22 38  1  0  0  0
 24 39  1  0  0  0
M  END
> <s_m_entry_id>
1384

> <s_m_entry_name>
7gjq.pdb.1_A_ligand

> <s_pdb_PDB_TITLE>
GROUP DEPOSITION SARS-COV-2 MAIN PROTEASE IN COMPLEX WITH INHIBITORS FROM THE COVID MOONSHOT -- CRYSTAL STRUCTURE OF SARS-COV-2 MAIN PROTEASE IN COMPLEX WITH MAT-POS-78E1D523-1 (MPRO-P0627)

> <s_pdb_PDB_ID>
7GJQ

> <s_m_Source_File>
7gjq.pdb.gz

> <s_user_Compound_ID>
MAT-POS-78e1d523-1

> <s_user_Monomer-Dimer>
Dimer

> <s_user_xcode>
Mpro-P0627

$$$$
