7GJR_ligand
                    3D
 Schrodinger Suite 2021-2.
 48 50  0  0  1  0            999 V2000
    8.3345   -1.0888   20.3495 N   0  0  0  0  0  0
    8.7759    0.7783   22.3377 C   0  0  0  0  0  0
    8.5818   -1.6647   21.5448 C   0  0  0  0  0  0
    8.4179   -1.5739   19.0235 C   0  0  0  0  0  0
    7.3626   -1.3627   18.1410 C   0  0  0  0  0  0
    8.0025   -3.0017   16.7028 C   0  0  0  0  0  0
   10.1727   -4.1819   16.9839 C   0  0  0  0  0  0
   10.6026   -2.7918   19.3475 C   0  0  0  0  0  0
    8.0503   -1.0313   23.9028 C   0  0  0  0  0  0
    7.5636   -2.4046   25.8202 C   0  0  0  0  0  0
    6.8872   -0.3009   24.1427 C   0  0  0  0  0  0
    4.6234    0.2748   25.4709 Cl  0  0  0  0  0  0
    6.0793   -0.6294   25.2164 C   0  0  0  0  0  0
    6.4134   -1.6836   26.0493 C   0  0  0  0  0  0
    5.3779   -2.1616   27.3475 Cl  0  0  0  0  0  0
    8.3795   -2.0772   24.7577 C   0  0  0  0  0  0
    8.9664   -0.6965   22.7150 C   0  0  2  0  0  0
   10.3707   -0.8810   23.1202 N   0  0  0  0  0  0
   11.1869   -1.9474   23.0688 C   0  0  0  0  0  0
   10.8235   -3.0725   22.7373 O   0  0  0  0  0  0
   12.6277   -1.7200   23.4695 C   0  0  0  0  0  0
   12.9164   -0.3661   23.1765 O   0  0  0  0  0  0
   14.1204    0.0853   23.7839 C   0  0  0  0  0  0
    8.4249   -2.8649   21.7319 O   0  0  0  0  0  0
    9.3826   -2.5732   18.6544 C   0  0  0  0  0  0
   11.5425   -3.6601   18.8673 C   0  0  0  0  0  0
   11.3308   -4.3476   17.6851 C   0  0  0  0  0  0
    9.1682   -3.2937   17.4457 C   0  0  0  0  0  0
    7.1284   -2.0658   17.0275 N   0  0  0  0  0  0
    8.0262   -0.1278   20.3061 H   0  0  0  0  0  0
    9.0559    1.4090   23.1818 H   0  0  0  0  0  0
    9.4051    1.0186   21.4806 H   0  0  0  0  0  0
    7.7312    0.9567   22.0822 H   0  0  0  0  0  0
    6.6481   -0.5753   18.3320 H   0  0  0  0  0  0
    7.7800   -3.5602   15.8053 H   0  0  0  0  0  0
   10.0134   -4.7301   16.0668 H   0  0  0  0  0  0
   10.8007   -2.2675   20.2710 H   0  0  0  0  0  0
    7.8257   -3.2250   26.4720 H   0  0  0  0  0  0
    6.6197    0.5182   23.4915 H   0  0  0  0  0  0
    9.2840   -2.6447   24.5938 H   0  0  0  0  0  0
   10.7076   -0.0046   23.4929 H   0  0  0  0  0  0
   13.2752   -2.3655   22.8756 H   0  0  0  0  0  0
   12.7372   -1.8901   24.5407 H   0  0  0  0  0  0
   14.2896    1.1302   23.5235 H   0  0  0  0  0  0
   14.0399   -0.0102   24.8669 H   0  0  0  0  0  0
   14.9560   -0.5175   23.4275 H   0  0  0  0  0  0
   12.4624   -3.8157   19.4119 H   0  0  0  0  0  0
   12.0926   -5.0201   17.3186 H   0  0  0  0  0  0
  1  3  1  0  0  0
  1  4  1  0  0  0
  1 30  1  0  0  0
  2 17  1  0  0  0
  2 31  1  0  0  0
  2 32  1  0  0  0
  2 33  1  0  0  0
  3 17  1  0  0  0
  3 24  2  0  0  0
  4  5  2  0  0  0
  4 25  1  0  0  0
  5 29  1  0  0  0
  5 34  1  0  0  0
  6 28  1  0  0  0
  6 29  2  0  0  0
  6 35  1  0  0  0
  7 27  1  0  0  0
  7 28  2  0  0  0
  7 36  1  0  0  0
  8 25  2  0  0  0
  8 26  1  0  0  0
  8 37  1  0  0  0
  9 11  1  0  0  0
  9 16  2  0  0  0
  9 17  1  0  0  0
 10 14  2  0  0  0
 10 16  1  0  0  0
 10 38  1  0  0  0
 11 13  2  0  0  0
 11 39  1  0  0  0
 12 13  1  0  0  0
 13 14  1  0  0  0
 14 15  1  0  0  0
 16 40  1  0  0  0
 17 18  1  0  0  0
 18 19  1  0  0  0
 18 41  1  0  0  0
 19 20  2  0  0  0
 19 21  1  0  0  0
 21 22  1  0  0  0
 21 42  1  0  0  0
 21 43  1  0  0  0
 22 23  1  0  0  0
 23 44  1  0  0  0
 23 45  1  0  0  0
 23 46  1  0  0  0
 25 28  1  0  0  0
 26 27  2  0  0  0
 26 47  1  0  0  0
 27 48  1  0  0  0
M  END
> <s_m_entry_id>
1386

> <s_m_entry_name>
7gjr.pdb.1_A_ligand

> <s_pdb_PDB_TITLE>
GROUP DEPOSITION SARS-COV-2 MAIN PROTEASE IN COMPLEX WITH INHIBITORS FROM THE COVID MOONSHOT -- CRYSTAL STRUCTURE OF SARS-COV-2 MAIN PROTEASE IN COMPLEX WITH MAT-POS-E9E99895-11 (MPRO-P0630)

> <s_pdb_PDB_ID>
7GJR

> <s_m_Source_File>
7gjr.pdb.gz

> <s_user_Compound_ID>
MAT-POS-e9e99895-11

> <s_user_Monomer-Dimer>
Dimer

> <s_user_xcode>
Mpro-P0630

$$$$
