7GJS_ligand
                    3D
 Schrodinger Suite 2021-2.
 64 67  0  0  1  0            999 V2000
   10.2917   -0.9404   23.1661 N   0  0  0  0  0  0
    7.0861   -1.9316   17.0965 N   0  0  0  0  0  0
   14.5717   -1.7517   23.9389 C   0  0  0  0  0  0
   12.2222   -2.1145   24.0796 C   0  0  2  0  0  0
   12.4771   -3.4862   24.6903 C   0  0  0  0  0  0
   10.9277   -2.1194   23.2735 C   0  0  0  0  0  0
    8.8803   -0.6869   22.8357 C   0  0  1  0  0  0
    8.4366   -1.6433   21.6816 C   0  0  0  0  0  0
    8.0140   -2.7925   16.7173 C   0  0  0  0  0  0
   10.2172   -3.9140   16.9646 C   0  0  0  0  0  0
   11.5402   -3.4567   18.9009 C   0  0  0  0  0  0
    7.9977   -0.9823   24.0583 C   0  0  0  0  0  0
    8.4741   -1.7820   25.0940 C   0  0  0  0  0  0
    7.6727   -2.1055   26.1713 C   0  0  0  0  0  0
    5.9009   -0.7939   25.2271 C   0  0  0  0  0  0
    4.3143   -0.0933   25.3336 Cl  0  0  0  0  0  0
    6.3822   -1.6241   26.2346 C   0  0  0  0  0  0
    5.3813   -2.0910   27.5717 Cl  0  0  0  0  0  0
    6.6972   -0.4816   24.1365 C   0  0  0  0  0  0
    8.7335    0.7914   22.4556 C   0  0  0  0  0  0
   10.4893   -3.1775   22.8265 O   0  0  0  0  0  0
   13.3205   -1.7434   23.2247 O   0  0  0  0  0  0
   14.8454   -3.1250   24.5146 C   0  0  0  0  0  0
   13.7517   -3.4998   25.4287 N   0  3  2  0  0  0
   13.9395   -4.6553   26.3310 C   0  0  0  0  0  0
   13.9815   -5.9921   25.6062 C   0  0  0  0  0  0
   15.1359   -4.4719   27.2526 C   0  0  0  0  0  0
    8.2167   -2.8309   21.8896 O   0  0  0  0  0  0
    8.2407   -1.0676   20.4765 N   0  0  0  0  0  0
    8.3293   -1.5194   19.1422 C   0  0  0  0  0  0
    9.3433   -2.4427   18.7193 C   0  0  0  0  0  0
   10.5580   -2.6602   19.4208 C   0  0  0  0  0  0
   11.3700   -4.0821   17.6762 C   0  0  0  0  0  0
    9.1777   -3.0873   17.4595 C   0  0  0  0  0  0
    7.2626   -1.3124   18.2693 C   0  0  0  0  0  0
   10.7955   -0.0789   23.3213 H   0  0  0  0  0  0
   14.5336   -1.0206   24.7464 H   0  0  0  0  0  0
   15.3788   -1.4751   23.2604 H   0  0  0  0  0  0
   12.1358   -1.3815   24.8817 H   0  0  0  0  0  0
   12.5079   -4.2356   23.8994 H   0  0  0  0  0  0
   11.6620   -3.7387   25.3686 H   0  0  0  0  0  0
    7.9080   -3.3241   15.7831 H   0  0  0  0  0  0
   10.0910   -4.4133   16.0152 H   0  0  0  0  0  0
   12.4610   -3.6041   19.4458 H   0  0  0  0  0  0
    9.4854   -2.1600   25.0631 H   0  0  0  0  0  0
    8.0574   -2.7338   26.9611 H   0  0  0  0  0  0
    6.3127    0.1484   23.3479 H   0  0  0  0  0  0
    7.6933    1.0016   22.2065 H   0  0  0  0  0  0
    9.0384    1.4151   23.2959 H   0  0  0  0  0  0
    9.3642    1.0100   21.5938 H   0  0  0  0  0  0
   15.7872   -3.1077   25.0631 H   0  0  0  0  0  0
   14.9074   -3.8523   23.7051 H   0  0  0  0  0  0
   13.6779   -2.7113   26.0556 H   0  0  0  0  0  0
   13.0605   -4.6852   26.9749 H   0  0  0  0  0  0
   14.1216   -6.7946   26.3305 H   0  0  0  0  0  0
   13.0442   -6.1457   25.0714 H   0  0  0  0  0  0
   14.8089   -5.9954   24.8965 H   0  0  0  0  0  0
   15.2355   -5.3450   27.8977 H   0  0  0  0  0  0
   16.0407   -4.3567   26.6558 H   0  0  0  0  0  0
   14.9899   -3.5826   27.8658 H   0  0  0  0  0  0
    7.9670   -0.0971   20.4189 H   0  0  0  0  0  0
   10.6997   -2.1848   20.3802 H   0  0  0  0  0  0
   12.1596   -4.7070   17.2857 H   0  0  0  0  0  0
    6.5423   -0.5825   18.6084 H   0  0  0  0  0  0
  1  6  1  0  0  0
  1  7  1  0  0  0
  1 36  1  0  0  0
  2  9  2  0  0  0
  2 35  1  0  0  0
  3 22  1  0  0  0
  3 23  1  0  0  0
  3 37  1  0  0  0
  3 38  1  0  0  0
  4  5  1  0  0  0
  4  6  1  0  0  0
  4 22  1  0  0  0
  4 39  1  0  0  0
  5 24  1  0  0  0
  5 40  1  0  0  0
  5 41  1  0  0  0
  6 21  2  0  0  0
  7  8  1  0  0  0
  7 12  1  0  0  0
  7 20  1  0  0  0
  8 28  2  0  0  0
  8 29  1  0  0  0
  9 34  1  0  0  0
  9 42  1  0  0  0
 10 33  1  0  0  0
 10 34  2  0  0  0
 10 43  1  0  0  0
 11 32  1  0  0  0
 11 33  2  0  0  0
 11 44  1  0  0  0
 12 13  1  0  0  0
 12 19  2  0  0  0
 13 14  2  0  0  0
 13 45  1  0  0  0
 14 17  1  0  0  0
 14 46  1  0  0  0
 15 16  1  0  0  0
 15 17  2  0  0  0
 15 19  1  0  0  0
 17 18  1  0  0  0
 19 47  1  0  0  0
 20 48  1  0  0  0
 20 49  1  0  0  0
 20 50  1  0  0  0
 23 24  1  0  0  0
 23 51  1  0  0  0
 23 52  1  0  0  0
 24 25  1  0  0  0
 24 53  1  0  0  0
 25 26  1  0  0  0
 25 27  1  0  0  0
 25 54  1  0  0  0
 26 55  1  0  0  0
 26 56  1  0  0  0
 26 57  1  0  0  0
 27 58  1  0  0  0
 27 59  1  0  0  0
 27 60  1  0  0  0
 29 30  1  0  0  0
 29 61  1  0  0  0
 30 31  1  0  0  0
 30 35  2  0  0  0
 31 32  2  0  0  0
 31 34  1  0  0  0
 32 62  1  0  0  0
 33 63  1  0  0  0
 35 64  1  0  0  0
M  CHG  1  24   1
M  END
> <s_m_entry_id>
1388

> <s_m_entry_name>
7gjs.pdb.1_A_ligand

> <s_pdb_PDB_TITLE>
GROUP DEPOSITION SARS-COV-2 MAIN PROTEASE IN COMPLEX WITH INHIBITORS FROM THE COVID MOONSHOT -- CRYSTAL STRUCTURE OF SARS-COV-2 MAIN PROTEASE IN COMPLEX WITH MAT-POS-E9E99895-2 (MPRO-P0640)

> <s_pdb_PDB_ID>
7GJS

> <s_m_Source_File>
7gjs.pdb.gz

> <s_user_Compound_ID>
MAT-POS-e9e99895-2

> <s_user_Monomer-Dimer>
Dimer

> <s_user_xcode>
Mpro-P0640

$$$$
