7GJT_ligand
                    3D
 Schrodinger Suite 2021-2.
 66 71  0  0  1  0            999 V2000
   11.3572    5.1190   20.7015 N   0  0  0  0  0  0
    8.3947   -1.2383   21.1197 N   0  0  0  0  0  0
    9.0436   -3.2044   24.6425 C   0  0  0  0  0  0
    9.3982   -1.8114   24.1635 C   0  0  0  0  0  0
    8.1670   -1.0650   23.5937 C   0  0  1  0  0  0
    8.3957    0.4632   23.4589 C   0  0  0  0  0  0
    9.8415    0.9050   23.3619 C   0  0  0  0  0  0
   10.3281    3.0029   26.3253 C   0  0  0  0  0  0
   11.3821    2.7629   23.5788 C   0  0  2  0  0  0
   11.9834    4.4180   21.6375 C   0  0  0  0  0  0
    7.8292   -1.7500   22.2458 C   0  0  0  0  0  0
    7.9295   -2.6472   17.2086 C   0  0  0  0  0  0
    9.1403   -2.9561   17.8750 C   0  0  0  0  0  0
   10.1568   -3.7590   17.2992 C   0  0  0  0  0  0
   11.4857   -3.5407   19.2767 C   0  0  0  0  0  0
    9.3183   -2.4586   19.1991 C   0  0  0  0  0  0
    5.8546   -0.4851   24.4913 C   0  0  0  0  0  0
    7.0906   -2.7261   22.2126 O   0  0  0  0  0  0
    8.2499   -1.7053   19.7862 C   0  0  0  0  0  0
   10.5267   -2.7702   19.8719 C   0  0  0  0  0  0
   11.2957   -4.0420   17.9960 C   0  0  0  0  0  0
    6.9443   -1.9452   17.7449 N   0  0  0  0  0  0
    7.1113   -1.5035   18.9998 C   0  0  0  0  0  0
    8.0635   -3.1750   25.6991 O   0  0  0  0  0  0
    6.9807   -1.3038   24.5515 C   0  0  0  0  0  0
    6.9807   -2.3569   25.4868 C   0  0  0  0  0  0
    5.8903   -2.6024   26.3054 C   0  0  0  0  0  0
    4.7720   -1.7966   26.2072 C   0  0  0  0  0  0
    4.7687   -0.7532   25.3061 C   0  0  0  0  0  0
    3.3271    0.2103   25.1306 Cl  0  0  0  0  0  0
   10.6374    0.3271   22.6322 O   0  0  0  0  0  0
   10.2085    2.0093   24.0521 N   0  0  0  0  0  0
   12.2388    3.3119   24.7316 C   0  0  0  0  0  0
   11.3884    3.9589   25.8205 C   0  0  0  0  0  0
    9.4405    2.5398   25.1892 C   0  0  0  0  0  0
   11.0851    3.7495   22.4825 C   0  0  0  0  0  0
    9.8543    4.1098   22.0086 C   0  0  0  0  0  0
   10.0452    4.9123   20.9543 N   0  0  0  0  0  0
   11.8899    5.6407   20.0202 H   0  0  0  0  0  0
    8.9983   -0.4308   21.1799 H   0  0  0  0  0  0
    9.9440   -3.7062   24.9969 H   0  0  0  0  0  0
    8.6582   -3.7882   23.8065 H   0  0  0  0  0  0
   10.1695   -1.8773   23.3961 H   0  0  0  0  0  0
    9.8181   -1.2393   24.9910 H   0  0  0  0  0  0
    7.9188    0.9738   24.2956 H   0  0  0  0  0  0
    7.8470    0.8342   22.5931 H   0  0  0  0  0  0
    9.7204    3.5010   27.0808 H   0  0  0  0  0  0
   10.8078    2.1393   26.7863 H   0  0  0  0  0  0
   12.0140    2.0118   23.1045 H   0  0  0  0  0  0
   13.0627    4.4136   21.6776 H   0  0  0  0  0  0
    7.7666   -2.9907   16.1976 H   0  0  0  0  0  0
   10.0337   -4.1523   16.3008 H   0  0  0  0  0  0
   12.4018   -3.7650   19.8030 H   0  0  0  0  0  0
    5.8323    0.3536   23.8111 H   0  0  0  0  0  0
   10.6835   -2.3884   20.8700 H   0  0  0  0  0  0
   12.0607   -4.6617   17.5518 H   0  0  0  0  0  0
    6.2721   -0.9511   19.3963 H   0  0  0  0  0  0
    5.9191   -3.4180   27.0129 H   0  0  0  0  0  0
    3.9124   -1.9873   26.8326 H   0  0  0  0  0  0
   12.9459    4.0439   24.3412 H   0  0  0  0  0  0
   12.8268    2.5022   25.1639 H   0  0  0  0  0  0
   12.0287    4.2612   26.6493 H   0  0  0  0  0  0
   10.9102    4.8544   25.4234 H   0  0  0  0  0  0
    8.8208    3.3707   24.8518 H   0  0  0  0  0  0
    8.7563    1.7733   25.5532 H   0  0  0  0  0  0
    8.9609    3.7421   22.4913 H   0  0  0  0  0  0
  1 10  1  0  0  0
  1 38  1  0  0  0
  1 39  1  0  0  0
  2 11  1  0  0  0
  2 19  1  0  0  0
  2 40  1  0  0  0
  3  4  1  0  0  0
  3 24  1  0  0  0
  3 41  1  0  0  0
  3 42  1  0  0  0
  4  5  1  0  0  0
  4 43  1  0  0  0
  4 44  1  0  0  0
  5  6  1  0  0  0
  5 11  1  0  0  0
  5 25  1  0  0  0
  6  7  1  0  0  0
  6 45  1  0  0  0
  6 46  1  0  0  0
  7 31  2  0  0  0
  7 32  1  0  0  0
  8 34  1  0  0  0
  8 35  1  0  0  0
  8 47  1  0  0  0
  8 48  1  0  0  0
  9 32  1  0  0  0
  9 33  1  0  0  0
  9 36  1  0  0  0
  9 49  1  0  0  0
 10 36  2  0  0  0
 10 50  1  0  0  0
 11 18  2  0  0  0
 12 13  1  0  0  0
 12 22  2  0  0  0
 12 51  1  0  0  0
 13 14  1  0  0  0
 13 16  2  0  0  0
 14 21  2  0  0  0
 14 52  1  0  0  0
 15 20  2  0  0  0
 15 21  1  0  0  0
 15 53  1  0  0  0
 16 19  1  0  0  0
 16 20  1  0  0  0
 17 25  1  0  0  0
 17 29  2  0  0  0
 17 54  1  0  0  0
 19 23  2  0  0  0
 20 55  1  0  0  0
 21 56  1  0  0  0
 22 23  1  0  0  0
 23 57  1  0  0  0
 24 26  1  0  0  0
 25 26  2  0  0  0
 26 27  1  0  0  0
 27 28  2  0  0  0
 27 58  1  0  0  0
 28 29  1  0  0  0
 28 59  1  0  0  0
 29 30  1  0  0  0
 32 35  1  0  0  0
 33 34  1  0  0  0
 33 60  1  0  0  0
 33 61  1  0  0  0
 34 62  1  0  0  0
 34 63  1  0  0  0
 35 64  1  0  0  0
 35 65  1  0  0  0
 36 37  1  0  0  0
 37 38  2  0  0  0
 37 66  1  0  0  0
M  END
> <s_m_entry_id>
1390

> <s_m_entry_name>
7gjt.pdb.1_A_ligand

> <s_pdb_PDB_TITLE>
GROUP DEPOSITION SARS-COV-2 MAIN PROTEASE IN COMPLEX WITH INHIBITORS FROM THE COVID MOONSHOT -- CRYSTAL STRUCTURE OF SARS-COV-2 MAIN PROTEASE IN COMPLEX WITH EDG-MED-BA1AC7B9-11 (MPRO-P0642)

> <s_pdb_PDB_ID>
7GJT

> <s_m_Source_File>
7gjt.pdb.gz

> <s_user_Compound_ID>
EDG-MED-ba1ac7b9-11

> <s_user_Monomer-Dimer>
Dimer

> <s_user_xcode>
Mpro-P0642

$$$$
