7GJU_ligand
                    3D
 Schrodinger Suite 2021-2.
 61 65  0  0  1  0            999 V2000
   13.1623   -2.7806   23.6366 N   0  0  0  0  0  0
    8.4238   -1.0464   20.3575 N   0  0  0  0  0  0
   12.7575   -3.0789   25.0135 C   0  0  0  0  0  0
   13.3722   -4.4501   25.2462 C   0  0  0  0  0  0
   15.8020   -4.4379   24.7104 C   0  0  0  0  0  0
   16.8207   -3.6001   24.0129 C   0  0  0  0  0  0
   16.8947   -5.0962   23.9357 C   0  0  0  0  0  0
    8.3737   -1.6081   21.5827 C   0  0  0  0  0  0
    8.1745   -2.9737   16.7126 C   0  0  0  0  0  0
   10.2933   -4.2256   17.0637 C   0  0  0  0  0  0
   11.6393   -3.7155   18.9712 C   0  0  0  0  0  0
    7.8954   -1.0539   23.9811 C   0  0  0  0  0  0
    8.2901   -2.0355   24.8848 C   0  0  0  0  0  0
    7.4908   -2.3774   25.9559 C   0  0  0  0  0  0
    5.8839   -0.7430   25.2668 C   0  0  0  0  0  0
    4.3862    0.0985   25.4999 Cl  0  0  0  0  0  0
    6.2946   -1.7259   26.1567 C   0  0  0  0  0  0
    5.3584   -2.1161   27.5602 Cl  0  0  0  0  0  0
    6.6743   -0.4096   24.1778 C   0  0  0  0  0  0
    8.7899   -0.6937   22.7847 C   0  0  2  0  0  0
    8.6388    0.7992   22.4674 C   0  0  0  0  0  0
    8.5660   -1.5489   19.0455 C   0  0  0  0  0  0
    9.5046   -2.5845   18.7110 C   0  0  0  0  0  0
   10.7035   -2.8295   19.4322 C   0  0  0  0  0  0
   11.4352   -4.4126   17.7904 C   0  0  0  0  0  0
    9.3036   -3.3031   17.4952 C   0  0  0  0  0  0
    7.3189   -2.0119   17.0096 N   0  0  0  0  0  0
    7.5409   -1.3141   18.1297 C   0  0  0  0  0  0
    7.9705   -2.7484   21.7644 O   0  0  0  0  0  0
   10.2007   -0.9606   23.1041 N   0  0  0  0  0  0
   10.9082   -2.0812   22.8831 C   0  0  0  0  0  0
   10.4030   -3.1928   22.7441 O   0  0  0  0  0  0
   12.4112   -1.8882   22.7758 C   0  0  0  0  0  0
   13.9644   -3.7646   23.1501 C   0  0  0  0  0  0
   14.2008   -3.9766   21.9740 O   0  0  0  0  0  0
   14.4174   -4.5074   24.2088 N   0  0  0  0  0  0
    8.3513   -0.0438   20.2583 H   0  0  0  0  0  0
   11.6713   -3.1598   25.0586 H   0  0  0  0  0  0
   13.2208   -2.3586   25.6881 H   0  0  0  0  0  0
   12.6244   -5.2173   25.0448 H   0  0  0  0  0  0
   13.8415   -4.4707   26.2301 H   0  0  0  0  0  0
   15.9062   -4.4885   25.7944 H   0  0  0  0  0  0
   17.5068   -3.4378   24.8445 H   0  0  0  0  0  0
   16.2787   -3.4078   23.0867 H   0  0  0  0  0  0
   16.3695   -5.2447   22.9919 H   0  0  0  0  0  0
   17.5977   -5.2747   24.7498 H   0  0  0  0  0  0
    7.9668   -3.5231   15.8060 H   0  0  0  0  0  0
   10.1365   -4.7823   16.1513 H   0  0  0  0  0  0
   12.5500   -3.8784   19.5290 H   0  0  0  0  0  0
    9.2348   -2.5425   24.7533 H   0  0  0  0  0  0
    7.8037   -3.1558   26.6363 H   0  0  0  0  0  0
    6.3451    0.3483   23.4821 H   0  0  0  0  0  0
    8.9406    1.3878   23.3341 H   0  0  0  0  0  0
    9.2701    1.0559   21.6166 H   0  0  0  0  0  0
    7.5982    1.0166   22.2257 H   0  0  0  0  0  0
   10.8701   -2.3021   20.3601 H   0  0  0  0  0  0
   12.1870   -5.1076   17.4460 H   0  0  0  0  0  0
    6.8406   -0.5089   18.2976 H   0  0  0  0  0  0
   10.6402   -0.1642   23.5434 H   0  0  0  0  0  0
   12.7222   -2.0361   21.7415 H   0  0  0  0  0  0
   12.6616   -0.8554   23.0185 H   0  0  0  0  0  0
  1  3  1  0  0  0
  1 33  1  0  0  0
  1 34  1  0  0  0
  2  8  1  0  0  0
  2 22  1  0  0  0
  2 37  1  0  0  0
  3  4  1  0  0  0
  3 38  1  0  0  0
  3 39  1  0  0  0
  4 36  1  0  0  0
  4 40  1  0  0  0
  4 41  1  0  0  0
  5  6  1  0  0  0
  5  7  1  0  0  0
  5 36  1  0  0  0
  5 42  1  0  0  0
  6  7  1  0  0  0
  6 43  1  0  0  0
  6 44  1  0  0  0
  7 45  1  0  0  0
  7 46  1  0  0  0
  8 20  1  0  0  0
  8 29  2  0  0  0
  9 26  1  0  0  0
  9 27  2  0  0  0
  9 47  1  0  0  0
 10 25  1  0  0  0
 10 26  2  0  0  0
 10 48  1  0  0  0
 11 24  1  0  0  0
 11 25  2  0  0  0
 11 49  1  0  0  0
 12 13  1  0  0  0
 12 19  2  0  0  0
 12 20  1  0  0  0
 13 14  2  0  0  0
 13 50  1  0  0  0
 14 17  1  0  0  0
 14 51  1  0  0  0
 15 16  1  0  0  0
 15 17  2  0  0  0
 15 19  1  0  0  0
 17 18  1  0  0  0
 19 52  1  0  0  0
 20 21  1  0  0  0
 20 30  1  0  0  0
 21 53  1  0  0  0
 21 54  1  0  0  0
 21 55  1  0  0  0
 22 23  1  0  0  0
 22 28  2  0  0  0
 23 24  2  0  0  0
 23 26  1  0  0  0
 24 56  1  0  0  0
 25 57  1  0  0  0
 27 28  1  0  0  0
 28 58  1  0  0  0
 30 31  1  0  0  0
 30 59  1  0  0  0
 31 32  2  0  0  0
 31 33  1  0  0  0
 33 60  1  0  0  0
 33 61  1  0  0  0
 34 35  2  0  0  0
 34 36  1  0  0  0
M  END
> <s_m_entry_id>
1392

> <s_m_entry_name>
7gju.pdb.1_A_ligand

> <s_pdb_PDB_TITLE>
GROUP DEPOSITION SARS-COV-2 MAIN PROTEASE IN COMPLEX WITH INHIBITORS FROM THE COVID MOONSHOT -- CRYSTAL STRUCTURE OF SARS-COV-2 MAIN PROTEASE IN COMPLEX WITH MAT-POS-E9E99895-6 (MPRO-P0655)

> <s_pdb_PDB_ID>
7GJU

> <s_m_Source_File>
7gju.pdb.gz

> <s_user_Compound_ID>
MAT-POS-e9e99895-6

> <s_user_Monomer-Dimer>
Dimer

> <s_user_xcode>
Mpro-P0655

$$$$
