7GJV_ligand
                    3D
 Schrodinger Suite 2021-2.
 43 46  0  0  1  0            999 V2000
    6.9373   -1.8910   17.6275 N   0  0  0  0  0  0
    7.3644   -1.8161   25.6930 C   0  0  0  0  0  0
    6.3463   -1.7997   26.6308 C   0  0  0  0  0  0
    5.1832   -1.1030   26.4449 C   0  0  0  0  0  0
    5.0538   -0.4295   25.2572 C   0  0  0  0  0  0
    6.0329   -0.3794   24.2930 C   0  0  0  0  0  0
    7.8753   -1.6568   22.0489 C   0  0  0  0  0  0
    7.8991   -2.6575   17.1345 C   0  0  0  0  0  0
   10.1171   -3.7883   17.2686 C   0  0  0  0  0  0
   11.4748   -3.4581   19.2119 C   0  0  0  0  0  0
    7.1501   -2.6421   21.9994 O   0  0  0  0  0  0
    8.3172   -1.0920   23.4531 C   0  0  1  0  0  0
    7.2233   -1.0755   24.5004 C   0  0  0  0  0  0
    3.8595    0.1581   24.9879 F   0  0  0  0  0  0
    6.5285   -2.4859   27.7798 F   0  0  0  0  0  0
    8.4659   -2.5798   25.9777 O   0  0  0  0  0  0
    9.6540   -2.1856   25.2813 C   0  0  0  0  0  0
    9.4057   -2.1262   23.7911 C   0  0  0  0  0  0
    9.0940    0.1179   23.4054 O   0  0  0  0  0  0
    8.3888    1.3560   23.2532 C   0  0  0  0  0  0
    8.4041   -1.0767   20.9498 N   0  0  0  0  0  0
    8.2730   -1.5412   19.6254 C   0  0  0  0  0  0
    9.3152   -2.3576   19.0869 C   0  0  0  0  0  0
   10.5288   -2.6411   19.7676 C   0  0  0  0  0  0
   11.2664   -4.0343   17.9651 C   0  0  0  0  0  0
    9.1146   -2.9414   17.8047 C   0  0  0  0  0  0
    7.1359   -1.3508   18.8382 C   0  0  0  0  0  0
    4.4248   -1.1032   27.2139 H   0  0  0  0  0  0
    5.8739    0.1933   23.3912 H   0  0  0  0  0  0
    7.7825   -3.1115   16.1614 H   0  0  0  0  0  0
    9.9656   -4.2408   16.2996 H   0  0  0  0  0  0
   12.3933   -3.6601   19.7429 H   0  0  0  0  0  0
   10.4503   -2.9006   25.4885 H   0  0  0  0  0  0
    9.9738   -1.2055   25.6353 H   0  0  0  0  0  0
   10.3307   -1.8600   23.2794 H   0  0  0  0  0  0
    9.0957   -3.1088   23.4355 H   0  0  0  0  0  0
    9.1015    2.1805   23.2333 H   0  0  0  0  0  0
    7.8249    1.3414   22.3205 H   0  0  0  0  0  0
    7.7029    1.4894   24.0898 H   0  0  0  0  0  0
    8.9503   -0.2317   21.0379 H   0  0  0  0  0  0
   10.6992   -2.2004   20.7389 H   0  0  0  0  0  0
   12.0231   -4.6819   17.5472 H   0  0  0  0  0  0
    6.3821   -0.7123   19.2749 H   0  0  0  0  0  0
  1  8  2  0  0  0
  1 27  1  0  0  0
  2  3  1  0  0  0
  2 13  2  0  0  0
  2 16  1  0  0  0
  3  4  2  0  0  0
  3 15  1  0  0  0
  4  5  1  0  0  0
  4 28  1  0  0  0
  5  6  2  0  0  0
  5 14  1  0  0  0
  6 13  1  0  0  0
  6 29  1  0  0  0
  7 11  2  0  0  0
  7 12  1  0  0  0
  7 21  1  0  0  0
  8 26  1  0  0  0
  8 30  1  0  0  0
  9 25  1  0  0  0
  9 26  2  0  0  0
  9 31  1  0  0  0
 10 24  1  0  0  0
 10 25  2  0  0  0
 10 32  1  0  0  0
 12 13  1  0  0  0
 12 18  1  0  0  0
 12 19  1  0  0  0
 16 17  1  0  0  0
 17 18  1  0  0  0
 17 33  1  0  0  0
 17 34  1  0  0  0
 18 35  1  0  0  0
 18 36  1  0  0  0
 19 20  1  0  0  0
 20 37  1  0  0  0
 20 38  1  0  0  0
 20 39  1  0  0  0
 21 22  1  0  0  0
 21 40  1  0  0  0
 22 23  1  0  0  0
 22 27  2  0  0  0
 23 24  2  0  0  0
 23 26  1  0  0  0
 24 41  1  0  0  0
 25 42  1  0  0  0
 27 43  1  0  0  0
M  END
> <s_m_entry_id>
1432

> <s_m_entry_name>
_ligand

> <s_user_Compound_ID>
MAT-POS-932d1078-3

> <s_user_Monomer-Dimer>
Dimer

> <s_user_xcode>
Mpro-P0661

$$$$
