7GJW_ligand
                    3D
 Schrodinger Suite 2021-2.
 64 69  0  0  1  0            999 V2000
    9.3956    2.2351   24.4876 N   0  0  0  0  0  0
    7.0098   -1.9790   17.5846 N   0  0  0  0  0  0
    9.7575    4.5172   24.8337 C   0  0  0  0  0  0
   10.9981    3.8768   24.2052 C   0  0  2  0  0  0
   10.2952    2.7484   23.4545 C   0  0  0  0  0  0
    8.8034    1.0286   24.5780 C   0  0  0  0  0  0
    8.3526    0.3650   23.2932 C   0  0  0  0  0  0
    9.5108   -1.8509   23.8157 C   0  0  0  0  0  0
    6.2155   -2.9020   26.2056 C   0  0  0  0  0  0
    4.9001   -1.1167   25.3294 C   0  0  0  0  0  0
    7.0805   -1.5115   24.3994 C   0  0  0  0  0  0
    7.2414   -1.4806   18.8064 C   0  0  0  0  0  0
    7.9255   -2.7864   17.0703 C   0  0  0  0  0  0
    9.1335   -3.1360   17.7188 C   0  0  0  0  0  0
   11.2497   -4.3018   17.8132 C   0  0  0  0  0  0
   10.5982   -2.9195   19.6577 C   0  0  0  0  0  0
    7.1238   -2.8033   21.9581 O   0  0  0  0  0  0
    7.8762   -1.8422   22.0222 C   0  0  0  0  0  0
    8.5058   -1.3310   20.9309 N   0  0  0  0  0  0
    8.3710   -1.7442   19.5854 C   0  0  0  0  0  0
    9.3780   -2.5863   19.0100 C   0  0  0  0  0  0
   11.5029   -3.7564   19.0653 C   0  0  0  0  0  0
   10.0969   -4.0035   17.1463 C   0  0  0  0  0  0
    8.1900   -1.1744   23.3839 C   0  0  1  0  0  0
    5.8922   -0.7781   24.4259 C   0  0  0  0  0  0
    3.4241   -0.1832   25.3509 Cl  0  0  0  0  0  0
    5.0386   -2.1747   26.2033 C   0  0  0  0  0  0
    7.2285   -2.5620   25.3217 C   0  0  0  0  0  0
    8.3940   -3.2733   25.4639 O   0  0  0  0  0  0
    9.2806   -3.2565   24.3297 C   0  0  0  0  0  0
    8.6624    0.5131   25.6801 O   0  0  0  0  0  0
    9.3640    3.2352   25.5736 C   0  0  2  0  0  0
   10.6389    3.0424   26.3894 C   0  0  0  0  0  0
   11.6792    3.3271   25.3978 N   0  0  0  0  0  0
   13.0038    3.0833   25.5585 C   0  0  0  0  0  0
   13.5591    3.3525   26.6191 O   0  0  0  0  0  0
   13.7395    2.4268   24.4260 C   0  0  0  0  0  0
    9.0271    4.6934   24.0440 H   0  0  0  0  0  0
   10.0876    5.2491   25.5711 H   0  0  0  0  0  0
   11.6031    4.5409   23.5879 H   0  0  0  0  0  0
    9.7031    3.1729   22.6437 H   0  0  0  0  0  0
   11.0246    1.9790   23.2011 H   0  0  0  0  0  0
    9.0554    0.6073   22.4960 H   0  0  0  0  0  0
    7.4114    0.8089   22.9687 H   0  0  0  0  0  0
    9.9867   -1.2537   24.5936 H   0  0  0  0  0  0
   10.1960   -1.8823   22.9686 H   0  0  0  0  0  0
    6.3394   -3.7266   26.8920 H   0  0  0  0  0  0
    6.5226   -0.8169   19.2640 H   0  0  0  0  0  0
    7.7730   -3.2240   16.0947 H   0  0  0  0  0  0
   11.9682   -4.9682   17.3591 H   0  0  0  0  0  0
   10.8218   -2.5101   20.6319 H   0  0  0  0  0  0
    9.1565   -0.5657   21.0356 H   0  0  0  0  0  0
   12.4220   -3.9922   19.5812 H   0  0  0  0  0  0
    9.9228   -4.4363   16.1722 H   0  0  0  0  0  0
    5.7449    0.0488   23.7470 H   0  0  0  0  0  0
    4.2400   -2.4376   26.8812 H   0  0  0  0  0  0
   10.2357   -3.7013   24.6095 H   0  0  0  0  0  0
    8.8612   -3.8701   23.5323 H   0  0  0  0  0  0
    8.4378    3.2839   26.1462 H   0  0  0  0  0  0
   10.7131    1.9993   26.6971 H   0  0  0  0  0  0
   10.6781    3.7956   27.1764 H   0  0  0  0  0  0
   14.7867    2.2965   24.6994 H   0  0  0  0  0  0
   13.2948    1.4534   24.2189 H   0  0  0  0  0  0
   13.6719    3.0532   23.5365 H   0  0  0  0  0  0
  1  5  1  0  0  0
  1  6  1  0  0  0
  1 32  1  0  0  0
  2 12  1  0  0  0
  2 13  2  0  0  0
  3  4  1  0  0  0
  3 32  1  0  0  0
  3 38  1  0  0  0
  3 39  1  0  0  0
  4  5  1  0  0  0
  4 34  1  0  0  0
  4 40  1  0  0  0
  5 41  1  0  0  0
  5 42  1  0  0  0
  6  7  1  0  0  0
  6 31  2  0  0  0
  7 24  1  0  0  0
  7 43  1  0  0  0
  7 44  1  0  0  0
  8 24  1  0  0  0
  8 30  1  0  0  0
  8 45  1  0  0  0
  8 46  1  0  0  0
  9 27  1  0  0  0
  9 28  2  0  0  0
  9 47  1  0  0  0
 10 25  1  0  0  0
 10 26  1  0  0  0
 10 27  2  0  0  0
 11 24  1  0  0  0
 11 25  2  0  0  0
 11 28  1  0  0  0
 12 20  2  0  0  0
 12 48  1  0  0  0
 13 14  1  0  0  0
 13 49  1  0  0  0
 14 21  1  0  0  0
 14 23  2  0  0  0
 15 22  2  0  0  0
 15 23  1  0  0  0
 15 50  1  0  0  0
 16 21  2  0  0  0
 16 22  1  0  0  0
 16 51  1  0  0  0
 17 18  2  0  0  0
 18 19  1  0  0  0
 18 24  1  0  0  0
 19 20  1  0  0  0
 19 52  1  0  0  0
 20 21  1  0  0  0
 22 53  1  0  0  0
 23 54  1  0  0  0
 25 55  1  0  0  0
 27 56  1  0  0  0
 28 29  1  0  0  0
 29 30  1  0  0  0
 30 57  1  0  0  0
 30 58  1  0  0  0
 32 33  1  0  0  0
 32 59  1  0  0  0
 33 34  1  0  0  0
 33 60  1  0  0  0
 33 61  1  0  0  0
 34 35  1  0  0  0
 35 36  2  0  0  0
 35 37  1  0  0  0
 37 62  1  0  0  0
 37 63  1  0  0  0
 37 64  1  0  0  0
M  END
> <s_m_entry_id>
1394

> <s_m_entry_name>
7gjw.pdb.1_A_ligand

> <s_pdb_PDB_TITLE>
GROUP DEPOSITION SARS-COV-2 MAIN PROTEASE IN COMPLEX WITH INHIBITORS FROM THE COVID MOONSHOT -- CRYSTAL STRUCTURE OF SARS-COV-2 MAIN PROTEASE IN COMPLEX WITH KAD-UNI-80F122C8-2 (MPRO-P0743)

> <s_pdb_PDB_ID>
7GJW

> <s_m_Source_File>
7gjw.pdb.gz

> <s_user_Compound_ID>
KAD-UNI-80f122c8-2

> <s_user_Monomer-Dimer>
Dimer

> <s_user_xcode>
Mpro-P0743

$$$$
