7GJX_ligand
                    3D
 Schrodinger Suite 2021-2.
 41 44  0  0  1  0            999 V2000
    8.3841   -0.9594   20.6417 N   0  0  0  0  0  0
    9.0422   -2.6135   25.1900 C   0  0  0  0  0  0
    9.7736   -1.0898   23.4491 C   0  0  0  0  0  0
    8.3490   -0.6802   23.0526 C   0  0  1  0  0  0
    7.9245   -1.4639   21.8084 C   0  0  0  0  0  0
    8.2285   -1.5034   19.3512 C   0  0  0  0  0  0
    7.7940   -2.7578   16.9381 C   0  0  0  0  0  0
   11.1804   -4.0822   17.7539 C   0  0  0  0  0  0
   10.4873   -2.5910   19.4940 C   0  0  0  0  0  0
    7.3943   -0.9488   24.2015 C   0  0  0  0  0  0
    7.2525   -2.4919   21.8784 O   0  0  0  0  0  0
    9.7876   -2.4718   23.9402 N   0  3  0  0  0  0
    7.6976   -1.9325   25.1575 C   0  0  0  0  0  0
    6.7583   -2.2330   26.1434 C   0  0  0  0  0  0
    5.5496   -1.5656   26.2042 C   0  0  0  0  0  0
    6.1864   -0.2572   24.2861 C   0  0  0  0  0  0
    5.2769   -0.5912   25.2681 C   0  0  0  0  0  0
    3.6937    0.1322   25.2324 Cl  0  0  0  0  0  0
    9.2661   -2.3336   18.8239 C   0  0  0  0  0  0
   11.4133   -3.4462   18.9649 C   0  0  0  0  0  0
   10.0201   -3.8670   17.0692 C   0  0  0  0  0  0
    9.0326   -2.9870   17.5817 C   0  0  0  0  0  0
    6.8382   -1.9789   17.4197 N   0  0  0  0  0  0
    7.0643   -1.3759   18.5934 C   0  0  0  0  0  0
    8.9058   -0.0946   20.6361 H   0  0  0  0  0  0
    9.6332   -2.2091   26.0117 H   0  0  0  0  0  0
    8.9066   -3.6719   25.4125 H   0  0  0  0  0  0
   10.1388   -0.4232   24.2304 H   0  0  0  0  0  0
   10.4299   -1.0056   22.5829 H   0  0  0  0  0  0
    8.3369    0.3852   22.8225 H   0  0  0  0  0  0
    7.5812   -3.2329   15.9918 H   0  0  0  0  0  0
   11.9208   -4.7541   17.3456 H   0  0  0  0  0  0
   10.6978   -2.1087   20.4371 H   0  0  0  0  0  0
    9.3889   -3.0811   23.2403 H   0  0  0  0  0  0
   10.7426   -2.7679   24.0830 H   0  0  0  0  0  0
    6.9700   -2.9982   26.8756 H   0  0  0  0  0  0
    4.8358   -1.8104   26.9769 H   0  0  0  0  0  0
    5.9674    0.5349   23.5854 H   0  0  0  0  0  0
   12.3341   -3.6247   19.5002 H   0  0  0  0  0  0
    9.8473   -4.3686   16.1285 H   0  0  0  0  0  0
    6.2568   -0.7509   18.9451 H   0  0  0  0  0  0
  1  5  1  0  0  0
  1  6  1  0  0  0
  1 25  1  0  0  0
  2 12  1  0  0  0
  2 13  1  0  0  0
  2 26  1  0  0  0
  2 27  1  0  0  0
  3  4  1  0  0  0
  3 12  1  0  0  0
  3 28  1  0  0  0
  3 29  1  0  0  0
  4  5  1  0  0  0
  4 10  1  0  0  0
  4 30  1  0  0  0
  5 11  2  0  0  0
  6 19  1  0  0  0
  6 24  2  0  0  0
  7 22  1  0  0  0
  7 23  2  0  0  0
  7 31  1  0  0  0
  8 20  1  0  0  0
  8 21  2  0  0  0
  8 32  1  0  0  0
  9 19  1  0  0  0
  9 20  2  0  0  0
  9 33  1  0  0  0
 10 13  1  0  0  0
 10 16  2  0  0  0
 12 34  1  0  0  0
 12 35  1  0  0  0
 13 14  2  0  0  0
 14 15  1  0  0  0
 14 36  1  0  0  0
 15 17  2  0  0  0
 15 37  1  0  0  0
 16 17  1  0  0  0
 16 38  1  0  0  0
 17 18  1  0  0  0
 19 22  2  0  0  0
 20 39  1  0  0  0
 21 22  1  0  0  0
 21 40  1  0  0  0
 23 24  1  0  0  0
 24 41  1  0  0  0
M  CHG  1  12   1
M  END
> <s_m_entry_id>
1396

> <s_m_entry_name>
7gjx.pdb.1_A_ligand

> <s_pdb_PDB_TITLE>
GROUP DEPOSITION SARS-COV-2 MAIN PROTEASE IN COMPLEX WITH INHIBITORS FROM THE COVID MOONSHOT -- CRYSTAL STRUCTURE OF SARS-COV-2 MAIN PROTEASE IN COMPLEX WITH MAT-POS-3CCB8EF6-1 (MPRO-P0744)

> <s_pdb_PDB_ID>
7GJX

> <s_m_Source_File>
7gjx.pdb.gz

> <s_user_Compound_ID>
MAT-POS-3ccb8ef6-1

> <s_user_Monomer-Dimer>
Dimer

> <s_user_xcode>
Mpro-P0744

$$$$
