7GJY_ligand
                    3D
 Schrodinger Suite 2021-2.
 57 60  0  0  1  0            999 V2000
   10.0626   -0.8617   23.3166 N   0  0  0  0  0  0
    7.0500   -1.9135   17.4062 N   0  0  0  0  0  0
   13.1073   -2.3519   22.4482 C   0  0  0  0  0  0
   10.7361   -2.0190   23.2099 C   0  0  0  0  0  0
    8.6544   -0.5965   22.9870 C   0  0  1  0  0  0
    8.4935    0.9029   22.7088 C   0  0  0  0  0  0
    8.2170   -1.4024   21.7216 C   0  0  0  0  0  0
    7.3736   -1.3330   18.5698 C   0  0  0  0  0  0
   10.0653   -4.0400   16.9206 C   0  0  0  0  0  0
   11.5730   -3.7243   18.7502 C   0  0  0  0  0  0
    9.4747   -2.5068   18.7389 C   0  0  0  0  0  0
    7.3571   -2.2973   26.1621 C   0  0  0  0  0  0
    6.0765   -1.7892   26.2447 C   0  0  0  0  0  0
    5.6368   -0.8628   25.3003 C   0  0  0  0  0  0
    4.0505   -0.1631   25.3953 Cl  0  0  0  0  0  0
    5.0185   -2.3902   27.4842 Cl  0  0  0  0  0  0
    8.1836   -1.9112   25.1250 C   0  0  0  0  0  0
    6.4646   -0.4751   24.2610 C   0  0  0  0  0  0
    7.7498   -1.0059   24.1591 C   0  0  0  0  0  0
   10.2277   -3.0797   22.8585 O   0  0  0  0  0  0
   12.1873   -1.9226   23.5936 C   0  0  1  0  0  0
   12.5676   -2.9234   24.7086 C   0  0  0  0  0  0
   13.8702   -3.5806   24.2713 C   0  0  0  0  0  0
   14.3341   -2.7940   23.1152 N   0  3  1  0  0  0
   15.2328   -3.5529   22.2307 C   0  0  0  0  0  0
    7.4209   -2.3314   21.7964 O   0  0  0  0  0  0
    8.8007   -1.0227   20.5639 N   0  0  0  0  0  0
    8.5416   -1.5751   19.2935 C   0  0  0  0  0  0
   10.7151   -2.8378   19.3426 C   0  0  0  0  0  0
   11.2468   -4.3254   17.5420 C   0  0  0  0  0  0
    9.1466   -3.1270   17.5002 C   0  0  0  0  0  0
    7.9127   -2.7790   16.8954 C   0  0  0  0  0  0
   10.5302   -0.0352   23.6607 H   0  0  0  0  0  0
   13.3288   -1.4887   21.8205 H   0  0  0  0  0  0
   12.6590   -3.1945   21.9217 H   0  0  0  0  0  0
    7.4537    1.1177   22.4623 H   0  0  0  0  0  0
    8.7812    1.4701   23.5941 H   0  0  0  0  0  0
    9.1311    1.1881   21.8720 H   0  0  0  0  0  0
    6.7047   -0.6137   19.0189 H   0  0  0  0  0  0
    9.8228   -4.5107   15.9793 H   0  0  0  0  0  0
   12.5146   -3.9625   19.2227 H   0  0  0  0  0  0
    7.7104   -2.9948   26.9072 H   0  0  0  0  0  0
    9.1838   -2.3124   25.0536 H   0  0  0  0  0  0
    6.1149    0.2384   23.5295 H   0  0  0  0  0  0
   12.4259   -0.9057   23.9052 H   0  0  0  0  0  0
   11.7900   -3.6823   24.7950 H   0  0  0  0  0  0
   12.7300   -2.3825   25.6410 H   0  0  0  0  0  0
   13.6703   -4.6045   23.9553 H   0  0  0  0  0  0
   14.6011   -3.5058   25.0764 H   0  0  0  0  0  0
   14.8273   -1.9809   23.4554 H   0  0  0  0  0  0
   16.1226   -3.8511   22.7853 H   0  0  0  0  0  0
   14.7184   -4.4415   21.8651 H   0  0  0  0  0  0
   15.5241   -2.9288   21.3858 H   0  0  0  0  0  0
    9.4879   -0.2825   20.5637 H   0  0  0  0  0  0
   10.9783   -2.3786   20.2841 H   0  0  0  0  0  0
   11.9376   -5.0243   17.0939 H   0  0  0  0  0  0
    7.6942   -3.2703   15.9587 H   0  0  0  0  0  0
  1  4  1  0  0  0
  1  5  1  0  0  0
  1 33  1  0  0  0
  2  8  1  0  0  0
  2 32  2  0  0  0
  3 21  1  0  0  0
  3 24  1  0  0  0
  3 34  1  0  0  0
  3 35  1  0  0  0
  4 20  2  0  0  0
  4 21  1  0  0  0
  5  6  1  0  0  0
  5  7  1  0  0  0
  5 19  1  0  0  0
  6 36  1  0  0  0
  6 37  1  0  0  0
  6 38  1  0  0  0
  7 26  2  0  0  0
  7 27  1  0  0  0
  8 28  2  0  0  0
  8 39  1  0  0  0
  9 30  1  0  0  0
  9 31  2  0  0  0
  9 40  1  0  0  0
 10 29  1  0  0  0
 10 30  2  0  0  0
 10 41  1  0  0  0
 11 28  1  0  0  0
 11 29  2  0  0  0
 11 31  1  0  0  0
 12 13  1  0  0  0
 12 17  2  0  0  0
 12 42  1  0  0  0
 13 14  2  0  0  0
 13 16  1  0  0  0
 14 15  1  0  0  0
 14 18  1  0  0  0
 17 19  1  0  0  0
 17 43  1  0  0  0
 18 19  2  0  0  0
 18 44  1  0  0  0
 21 22  1  0  0  0
 21 45  1  0  0  0
 22 23  1  0  0  0
 22 46  1  0  0  0
 22 47  1  0  0  0
 23 24  1  0  0  0
 23 48  1  0  0  0
 23 49  1  0  0  0
 24 25  1  0  0  0
 24 50  1  0  0  0
 25 51  1  0  0  0
 25 52  1  0  0  0
 25 53  1  0  0  0
 27 28  1  0  0  0
 27 54  1  0  0  0
 29 55  1  0  0  0
 30 56  1  0  0  0
 31 32  1  0  0  0
 32 57  1  0  0  0
M  CHG  1  24   1
M  END
> <s_m_entry_id>
1398

> <s_m_entry_name>
7gjy.pdb.1_A_ligand

> <s_pdb_PDB_TITLE>
GROUP DEPOSITION SARS-COV-2 MAIN PROTEASE IN COMPLEX WITH INHIBITORS FROM THE COVID MOONSHOT -- CRYSTAL STRUCTURE OF SARS-COV-2 MAIN PROTEASE IN COMPLEX WITH MAT-POS-E9E99895-13 (MPRO-P0747)

> <s_pdb_PDB_ID>
7GJY

> <s_m_Source_File>
7gjy.pdb.gz

> <s_user_Compound_ID>
MAT-POS-e9e99895-13

> <s_user_Monomer-Dimer>
Dimer

> <s_user_xcode>
Mpro-P0747

$$$$
