7GK0_ligand
                    3D
 Schrodinger Suite 2021-2.
 44 48  0  0  1  0            999 V2000
    8.2314   -1.3256   21.0577 N   0  0  0  0  0  0
    9.5128   -2.0883   24.0296 C   0  0  0  0  0  0
    9.1361   -3.4084   24.6657 C   0  0  0  0  0  0
    7.1638   -2.3522   25.5323 C   0  0  0  0  0  0
    6.1301   -2.4256   26.4489 C   0  0  0  0  0  0
    5.0587   -1.5612   26.3326 C   0  0  0  0  0  0
    6.0818   -0.5265   24.4055 C   0  0  0  0  0  0
    7.0561   -1.4877   18.8827 C   0  0  0  0  0  0
    9.0385   -3.0643   17.8208 C   0  0  0  0  0  0
   11.1765   -4.1803   17.9632 C   0  0  0  0  0  0
    9.2186   -2.5507   19.1384 C   0  0  0  0  0  0
    3.5948    0.3034   25.0413 Cl  0  0  0  0  0  0
    5.0380   -0.6408   25.3048 C   0  0  0  0  0  0
    7.1596   -1.4089   24.4903 C   0  0  0  0  0  0
    8.1892   -3.2450   25.7406 O   0  0  0  0  0  0
    8.2715   -1.3986   23.4349 C   0  0  1  0  0  0
    8.6518   -0.0958   22.8621 N   0  0  0  0  0  0
    9.0602    1.0534   23.6684 C   0  0  0  0  0  0
    7.9018   -2.1654   22.1316 C   0  0  0  0  0  0
    7.3926   -3.2668   22.0489 O   0  0  0  0  0  0
    8.6661   -0.0753   21.4990 C   0  0  0  0  0  0
    9.0111    0.8593   20.8020 O   0  0  0  0  0  0
    8.1750   -1.7350   19.6708 C   0  0  0  0  0  0
   10.4149   -2.8859   19.8284 C   0  0  0  0  0  0
   11.3625   -3.6784   19.2469 C   0  0  0  0  0  0
   10.0444   -3.8881   17.2575 C   0  0  0  0  0  0
    7.8455   -2.7219   17.1343 C   0  0  0  0  0  0
    6.8830   -1.9614   17.6404 N   0  0  0  0  0  0
   10.2441   -2.2616   23.2408 H   0  0  0  0  0  0
    9.9646   -1.4395   24.7804 H   0  0  0  0  0  0
   10.0336   -3.8977   25.0449 H   0  0  0  0  0  0
    8.7135   -4.0685   23.9077 H   0  0  0  0  0  0
    6.1661   -3.1537   27.2458 H   0  0  0  0  0  0
    4.2470   -1.6096   27.0425 H   0  0  0  0  0  0
    6.0582    0.2408   23.6458 H   0  0  0  0  0  0
    6.2516   -0.8767   19.2639 H   0  0  0  0  0  0
   11.9319   -4.8080   17.5149 H   0  0  0  0  0  0
    9.2897    1.8939   23.0136 H   0  0  0  0  0  0
    8.2507    1.3303   24.3430 H   0  0  0  0  0  0
    9.9451    0.7942   24.2505 H   0  0  0  0  0  0
   10.5854   -2.5129   20.8276 H   0  0  0  0  0  0
   12.2635   -3.9143   19.7945 H   0  0  0  0  0  0
    9.9183   -4.2897   16.2628 H   0  0  0  0  0  0
    7.6750   -3.0862   16.1318 H   0  0  0  0  0  0
  1 19  1  0  0  0
  1 21  1  0  0  0
  1 23  1  0  0  0
  2  3  1  0  0  0
  2 16  1  0  0  0
  2 29  1  0  0  0
  2 30  1  0  0  0
  3 15  1  0  0  0
  3 31  1  0  0  0
  3 32  1  0  0  0
  4  5  1  0  0  0
  4 14  2  0  0  0
  4 15  1  0  0  0
  5  6  2  0  0  0
  5 33  1  0  0  0
  6 13  1  0  0  0
  6 34  1  0  0  0
  7 13  2  0  0  0
  7 14  1  0  0  0
  7 35  1  0  0  0
  8 23  2  0  0  0
  8 28  1  0  0  0
  8 36  1  0  0  0
  9 11  1  0  0  0
  9 26  2  0  0  0
  9 27  1  0  0  0
 10 25  2  0  0  0
 10 26  1  0  0  0
 10 37  1  0  0  0
 11 23  1  0  0  0
 11 24  2  0  0  0
 12 13  1  0  0  0
 14 16  1  0  0  0
 16 17  1  0  0  0
 16 19  1  0  0  0
 17 18  1  0  0  0
 17 21  1  0  0  0
 18 38  1  0  0  0
 18 39  1  0  0  0
 18 40  1  0  0  0
 19 20  2  0  0  0
 21 22  2  0  0  0
 24 25  1  0  0  0
 24 41  1  0  0  0
 25 42  1  0  0  0
 26 43  1  0  0  0
 27 28  2  0  0  0
 27 44  1  0  0  0
M  END
> <s_m_entry_id>
1400

> <s_m_entry_name>
7gk0.pdb.1_A_ligand

> <s_pdb_PDB_TITLE>
GROUP DEPOSITION SARS-COV-2 MAIN PROTEASE IN COMPLEX WITH INHIBITORS FROM THE COVID MOONSHOT -- CRYSTAL STRUCTURE OF SARS-COV-2 MAIN PROTEASE IN COMPLEX WITH BEN-BAS-C2BC0D80-7 (MPRO-P0765)

> <s_pdb_PDB_ID>
7GK0

> <s_m_Source_File>
7gk0.pdb.gz

> <s_user_Compound_ID>
BEN-BAS-c2bc0d80-7

> <s_user_Monomer-Dimer>
Dimer

> <s_user_xcode>
Mpro-P0765

$$$$
