7GK1_ligand
                    3D
 Schrodinger Suite 2021-2.
 39 42  0  0  1  0            999 V2000
    6.8734   -1.8976   17.4615 N   0  0  0  0  0  0
    7.1156   -1.3380   18.6556 C   0  0  0  0  0  0
    7.7898   -2.7232   16.9742 C   0  0  0  0  0  0
    9.0116   -3.0299   17.6236 C   0  0  0  0  0  0
    9.9866   -3.9016   17.0747 C   0  0  0  0  0  0
   11.1587   -4.1387   17.7349 C   0  0  0  0  0  0
   10.5011   -2.6935   19.5260 C   0  0  0  0  0  0
    7.6806   -2.0558   25.2930 C   0  0  0  0  0  0
    5.5939   -1.5313   26.3302 C   0  0  0  0  0  0
    6.2428   -0.4177   24.2753 C   0  0  0  0  0  0
    3.7904    0.1591   25.2333 Cl  0  0  0  0  0  0
    5.3386   -0.6379   25.2989 C   0  0  0  0  0  0
    6.7804   -2.2438   26.3374 C   0  0  0  0  0  0
    7.4167   -1.1584   24.2652 C   0  0  0  0  0  0
    8.9193   -2.6555   25.0795 N   0  0  0  0  0  0
    9.4973   -2.2319   23.9294 C   0  0  0  0  0  0
   10.5721   -2.6037   23.4803 O   0  0  0  0  0  0
    8.5431   -1.2190   23.2594 C   0  0  2  0  0  0
    9.2753    0.1400   23.1558 C   0  0  0  0  0  0
    8.0907   -1.8152   21.8762 C   0  0  0  0  0  0
    7.5353   -2.9060   21.8558 O   0  0  0  0  0  0
    8.4098   -1.1184   20.7591 N   0  0  0  0  0  0
    8.2584   -1.5582   19.4298 C   0  0  0  0  0  0
    9.2651   -2.4163   18.8841 C   0  0  0  0  0  0
   11.4165   -3.5324   18.9570 C   0  0  0  0  0  0
    6.3971   -0.6580   19.0890 H   0  0  0  0  0  0
    7.6273   -3.2102   16.0240 H   0  0  0  0  0  0
    9.8057   -4.3853   16.1261 H   0  0  0  0  0  0
   11.8949   -4.8028   17.3067 H   0  0  0  0  0  0
   10.7288   -2.2384   20.4786 H   0  0  0  0  0  0
    4.8691   -1.6665   27.1194 H   0  0  0  0  0  0
    6.0263    0.3147   23.5117 H   0  0  0  0  0  0
    7.0138   -2.9353   27.1336 H   0  0  0  0  0  0
    9.2806   -3.3201   25.7487 H   0  0  0  0  0  0
   10.0802    0.0649   22.4246 H   0  0  0  0  0  0
    8.5706    0.9100   22.8419 H   0  0  0  0  0  0
    9.6918    0.4039   24.1279 H   0  0  0  0  0  0
    8.7969   -0.1888   20.8371 H   0  0  0  0  0  0
   12.3489   -3.7222   19.4679 H   0  0  0  0  0  0
  1  2  1  0  0  0
  1  3  2  0  0  0
  2 23  2  0  0  0
  2 26  1  0  0  0
  3  4  1  0  0  0
  3 27  1  0  0  0
  4  5  1  0  0  0
  4 24  2  0  0  0
  5  6  2  0  0  0
  5 28  1  0  0  0
  6 25  1  0  0  0
  6 29  1  0  0  0
  7 24  1  0  0  0
  7 25  2  0  0  0
  7 30  1  0  0  0
  8 13  1  0  0  0
  8 14  2  0  0  0
  8 15  1  0  0  0
  9 12  1  0  0  0
  9 13  2  0  0  0
  9 31  1  0  0  0
 10 12  2  0  0  0
 10 14  1  0  0  0
 10 32  1  0  0  0
 11 12  1  0  0  0
 13 33  1  0  0  0
 14 18  1  0  0  0
 15 16  1  0  0  0
 15 34  1  0  0  0
 16 17  2  0  0  0
 16 18  1  0  0  0
 18 19  1  0  0  0
 18 20  1  0  0  0
 19 35  1  0  0  0
 19 36  1  0  0  0
 19 37  1  0  0  0
 20 21  2  0  0  0
 20 22  1  0  0  0
 22 23  1  0  0  0
 22 38  1  0  0  0
 23 24  1  0  0  0
 25 39  1  0  0  0
M  END
> <s_m_entry_id>
1402

> <s_m_entry_name>
7gk1.pdb.1_A_ligand

> <s_pdb_PDB_TITLE>
GROUP DEPOSITION SARS-COV-2 MAIN PROTEASE IN COMPLEX WITH INHIBITORS FROM THE COVID MOONSHOT -- CRYSTAL STRUCTURE OF SARS-COV-2 MAIN PROTEASE IN COMPLEX WITH EDJ-MED-9E38FD34-1 (MPRO-P0766)

> <s_pdb_PDB_ID>
7GK1

> <s_m_Source_File>
7gk1.pdb.gz

> <s_user_Compound_ID>
EDJ-MED-9e38fd34-1

> <s_user_Monomer-Dimer>
Dimer

> <s_user_xcode>
Mpro-P0766

$$$$
