7GK2_ligand
                    3D
 Schrodinger Suite 2021-2.
 63 68  0  0  1  0            999 V2000
    9.1070    2.0607   24.1900 N   0  0  0  0  0  0
    6.9512   -1.8695   17.7056 N   0  0  0  0  0  0
    9.7129    3.5291   25.8971 C   0  0  2  0  0  0
    8.8687    2.2839   25.6174 C   0  0  0  0  0  0
    8.6867    1.0151   23.4443 C   0  0  0  0  0  0
    9.3038   -0.3270   23.7594 C   0  0  0  0  0  0
    8.4185   -1.5661   23.5019 C   0  0  2  0  0  0
    9.5270   -3.2365   25.0445 C   0  0  0  0  0  0
    5.1155   -2.0136   26.2930 C   0  0  0  0  0  0
    6.1399   -0.8328   24.4541 C   0  0  0  0  0  0
    7.9113   -1.8804   22.0858 C   0  0  0  0  0  0
    7.8903   -2.6323   17.1661 C   0  0  0  0  0  0
    9.1249   -2.9318   17.7874 C   0  0  0  0  0  0
   10.1169   -3.7476   17.1870 C   0  0  0  0  0  0
   11.5432   -3.4500   19.0841 C   0  0  0  0  0  0
    9.3664   -2.3847   19.0793 C   0  0  0  0  0  0
    7.1073   -2.7836   21.9222 O   0  0  0  0  0  0
    8.4713   -1.2296   21.0370 N   0  0  0  0  0  0
    8.3374   -1.5901   19.6798 C   0  0  0  0  0  0
   10.6077   -2.6682   19.7032 C   0  0  0  0  0  0
   11.2959   -3.9923   17.8293 C   0  0  0  0  0  0
    7.1853   -1.3661   18.9259 C   0  0  0  0  0  0
    7.2700   -1.6518   24.5362 C   0  0  0  0  0  0
    5.0757   -1.0487   25.3162 C   0  0  0  0  0  0
    3.6018   -0.1423   25.0915 Cl  0  0  0  0  0  0
    6.2371   -2.8082   26.4105 C   0  0  0  0  0  0
    7.2854   -2.6446   25.5255 C   0  0  0  0  0  0
    8.2664   -3.6005   25.6146 O   0  0  0  0  0  0
    9.3612   -2.7852   23.6164 C   0  0  0  0  0  0
    7.8828    1.1536   22.5362 O   0  0  0  0  0  0
    9.9892    3.1505   23.7333 C   0  0  2  0  0  0
   11.3801    2.9476   24.3298 C   0  0  0  0  0  0
    9.5073    4.3161   24.6006 C   0  0  0  0  0  0
   11.1209    3.0811   25.7696 N   0  3  1  0  0  0
   12.0777    3.9693   26.4312 C   0  0  0  0  0  0
    9.4712    4.0643   26.8154 H   0  0  0  0  0  0
    9.2702    1.4436   26.1839 H   0  0  0  0  0  0
    7.8163    2.5216   25.7725 H   0  0  0  0  0  0
    9.6384   -0.3339   24.7968 H   0  0  0  0  0  0
   10.2376   -0.4316   23.2068 H   0  0  0  0  0  0
   10.2014   -4.0921   25.0788 H   0  0  0  0  0  0
    9.9713   -2.4317   25.6302 H   0  0  0  0  0  0
    4.2747   -2.1436   26.9583 H   0  0  0  0  0  0
    6.1003   -0.0389   23.7229 H   0  0  0  0  0  0
    7.7364   -3.0697   16.1906 H   0  0  0  0  0  0
    9.9427   -4.1814   16.2134 H   0  0  0  0  0  0
   12.4861   -3.6517   19.5708 H   0  0  0  0  0  0
    9.0412   -0.4111   21.1965 H   0  0  0  0  0  0
   10.8093   -2.2569   20.6813 H   0  0  0  0  0  0
   12.0468   -4.6123   17.3621 H   0  0  0  0  0  0
    6.4497   -0.7323   19.3988 H   0  0  0  0  0  0
    6.2921   -3.5528   27.1909 H   0  0  0  0  0  0
   10.3363   -2.5298   23.2013 H   0  0  0  0  0  0
    8.9651   -3.6071   23.0200 H   0  0  0  0  0  0
    9.9716    3.3377   22.6596 H   0  0  0  0  0  0
   12.0311    3.7596   24.0058 H   0  0  0  0  0  0
   11.7162    1.9325   24.1186 H   0  0  0  0  0  0
   10.2593    5.1041   24.5588 H   0  0  0  0  0  0
    8.4356    4.4367   24.4428 H   0  0  0  0  0  0
   11.1991    2.1659   26.1895 H   0  0  0  0  0  0
   13.0873    3.5809   26.2976 H   0  0  0  0  0  0
   12.0115    4.9657   25.9942 H   0  0  0  0  0  0
   11.8478    4.0238   27.4954 H   0  0  0  0  0  0
  1  4  1  0  0  0
  1  5  1  0  0  0
  1 31  1  0  0  0
  2 12  1  0  0  0
  2 22  2  0  0  0
  3  4  1  0  0  0
  3 33  1  0  0  0
  3 34  1  0  0  0
  3 36  1  0  0  0
  4 37  1  0  0  0
  4 38  1  0  0  0
  5  6  1  0  0  0
  5 30  2  0  0  0
  6  7  1  0  0  0
  6 39  1  0  0  0
  6 40  1  0  0  0
  7 11  1  0  0  0
  7 23  1  0  0  0
  7 29  1  0  0  0
  8 28  1  0  0  0
  8 29  1  0  0  0
  8 41  1  0  0  0
  8 42  1  0  0  0
  9 24  1  0  0  0
  9 26  2  0  0  0
  9 43  1  0  0  0
 10 23  1  0  0  0
 10 24  2  0  0  0
 10 44  1  0  0  0
 11 17  2  0  0  0
 11 18  1  0  0  0
 12 13  2  0  0  0
 12 45  1  0  0  0
 13 14  1  0  0  0
 13 16  1  0  0  0
 14 21  2  0  0  0
 14 46  1  0  0  0
 15 20  2  0  0  0
 15 21  1  0  0  0
 15 47  1  0  0  0
 16 19  2  0  0  0
 16 20  1  0  0  0
 18 19  1  0  0  0
 18 48  1  0  0  0
 19 22  1  0  0  0
 20 49  1  0  0  0
 21 50  1  0  0  0
 22 51  1  0  0  0
 23 27  2  0  0  0
 24 25  1  0  0  0
 26 27  1  0  0  0
 26 52  1  0  0  0
 27 28  1  0  0  0
 29 53  1  0  0  0
 29 54  1  0  0  0
 31 32  1  0  0  0
 31 33  1  0  0  0
 31 55  1  0  0  0
 32 34  1  0  0  0
 32 56  1  0  0  0
 32 57  1  0  0  0
 33 58  1  0  0  0
 33 59  1  0  0  0
 34 35  1  0  0  0
 34 60  1  0  0  0
 35 61  1  0  0  0
 35 62  1  0  0  0
 35 63  1  0  0  0
M  CHG  1  34   1
M  END
> <s_m_entry_id>
1404

> <s_m_entry_name>
7gk2.pdb.1_A_ligand

> <s_pdb_PDB_TITLE>
GROUP DEPOSITION SARS-COV-2 MAIN PROTEASE IN COMPLEX WITH INHIBITORS FROM THE COVID MOONSHOT -- CRYSTAL STRUCTURE OF SARS-COV-2 MAIN PROTEASE IN COMPLEX WITH EDG-MED-BA1AC7B9-13 (MPRO-P0772)

> <s_pdb_PDB_ID>
7GK2

> <s_m_Source_File>
7gk2.pdb.gz

> <s_user_Compound_ID>
EDG-MED-ba1ac7b9-13

> <s_user_Monomer-Dimer>
Dimer

> <s_user_xcode>
Mpro-P0772

$$$$
