7GK3_ligand
                    3D
 Schrodinger Suite 2021-2.
 43 46  0  0  1  0            999 V2000
    8.4078   -0.8720   20.6351 N   0  0  0  0  0  0
    7.1135   -2.0936   26.2520 C   0  0  0  0  0  0
    5.8717   -1.5053   26.4060 C   0  0  0  0  0  0
    5.4423   -0.5935   25.4631 C   0  0  0  0  0  0
    6.2200   -0.2638   24.3712 C   0  0  0  0  0  0
    7.4671   -0.8632   24.2102 C   0  0  0  0  0  0
    8.0410   -1.3568   21.8445 C   0  0  0  0  0  0
    7.8428   -2.8090   16.9942 C   0  0  0  0  0  0
   10.0556   -3.9382   17.1975 C   0  0  0  0  0  0
   11.4313   -3.4626   19.0990 C   0  0  0  0  0  0
    7.4663   -2.4364   21.9997 O   0  0  0  0  0  0
    8.3510   -0.4481   23.0501 C   0  0  2  0  0  0
    3.8765    0.1519   25.6407 Cl  0  0  0  0  0  0
    7.9312   -1.7828   25.1653 C   0  0  0  0  0  0
    9.3174   -2.3821   25.0841 C   0  0  0  0  0  0
   10.1116   -1.9048   23.8786 C   0  0  0  0  0  0
    9.7582   -0.5359   23.4845 N   0  0  1  0  0  0
   10.7396    0.0341   22.5591 C   0  0  0  0  0  0
    8.2526   -1.4829   19.3754 C   0  0  0  0  0  0
    9.2719   -2.3741   18.9131 C   0  0  0  0  0  0
   10.4901   -2.6097   19.6042 C   0  0  0  0  0  0
   11.2146   -4.1259   17.8974 C   0  0  0  0  0  0
    9.0558   -3.0582   17.6827 C   0  0  0  0  0  0
    6.9023   -1.9780   17.4188 N   0  0  0  0  0  0
    7.1177   -1.3370   18.5751 C   0  0  0  0  0  0
    8.8511    0.0331   20.5673 H   0  0  0  0  0  0
    7.4667   -2.8082   26.9808 H   0  0  0  0  0  0
    5.2541   -1.7615   27.2542 H   0  0  0  0  0  0
    5.8602    0.4544   23.6491 H   0  0  0  0  0  0
    7.6389   -3.3117   16.0600 H   0  0  0  0  0  0
    9.8958   -4.4625   16.2667 H   0  0  0  0  0  0
   12.3548   -3.6266   19.6349 H   0  0  0  0  0  0
    8.1252    0.5846   22.7837 H   0  0  0  0  0  0
    9.2409   -3.4692   25.0594 H   0  0  0  0  0  0
    9.8673   -2.1472   25.9957 H   0  0  0  0  0  0
    9.9383   -2.5796   23.0400 H   0  0  0  0  0  0
   11.1771   -1.9536   24.1041 H   0  0  0  0  0  0
   11.7412   -0.0825   22.9736 H   0  0  0  0  0  0
   10.6806   -0.4839   21.6016 H   0  0  0  0  0  0
   10.5287    1.0935   22.4123 H   0  0  0  0  0  0
   10.6675   -2.1037   20.5420 H   0  0  0  0  0  0
   11.9726   -4.7951   17.5174 H   0  0  0  0  0  0
    6.3277   -0.6643   18.8757 H   0  0  0  0  0  0
  1  7  1  0  0  0
  1 19  1  0  0  0
  1 26  1  0  0  0
  2  3  1  0  0  0
  2 14  2  0  0  0
  2 27  1  0  0  0
  3  4  2  0  0  0
  3 28  1  0  0  0
  4  5  1  0  0  0
  4 13  1  0  0  0
  5  6  2  0  0  0
  5 29  1  0  0  0
  6 12  1  0  0  0
  6 14  1  0  0  0
  7 11  2  0  0  0
  7 12  1  0  0  0
  8 23  1  0  0  0
  8 24  2  0  0  0
  8 30  1  0  0  0
  9 22  1  0  0  0
  9 23  2  0  0  0
  9 31  1  0  0  0
 10 21  1  0  0  0
 10 22  2  0  0  0
 10 32  1  0  0  0
 12 17  1  0  0  0
 12 33  1  0  0  0
 14 15  1  0  0  0
 15 16  1  0  0  0
 15 34  1  0  0  0
 15 35  1  0  0  0
 16 17  1  0  0  0
 16 36  1  0  0  0
 16 37  1  0  0  0
 17 18  1  0  0  0
 18 38  1  0  0  0
 18 39  1  0  0  0
 18 40  1  0  0  0
 19 20  1  0  0  0
 19 25  2  0  0  0
 20 21  2  0  0  0
 20 23  1  0  0  0
 21 41  1  0  0  0
 22 42  1  0  0  0
 24 25  1  0  0  0
 25 43  1  0  0  0
M  END
> <s_m_entry_id>
1406

> <s_m_entry_name>
7gk3.pdb.1_A_ligand

> <s_pdb_PDB_TITLE>
GROUP DEPOSITION SARS-COV-2 MAIN PROTEASE IN COMPLEX WITH INHIBITORS FROM THE COVID MOONSHOT -- CRYSTAL STRUCTURE OF SARS-COV-2 MAIN PROTEASE IN COMPLEX WITH MAT-POS-FB82B63D-3 (MPRO-P0776)

> <s_pdb_PDB_ID>
7GK3

> <s_m_Source_File>
7gk3.pdb.gz

> <s_user_Compound_ID>
MAT-POS-fb82b63d-3

> <s_user_Monomer-Dimer>
Dimer

> <s_user_xcode>
Mpro-P0776

$$$$
