7GK4_ligand
                    3D
 Schrodinger Suite 2021-2.
 40 42  0  0  1  0            999 V2000
    7.1960   -2.2658   17.0466 N   0  0  0  0  0  0
    6.1039   -0.8479   25.6703 C   0  0  0  0  0  0
    6.5114   -0.3175   24.4650 C   0  0  0  0  0  0
    7.6520   -0.8216   23.8506 C   0  0  0  0  0  0
    8.0996   -0.2830   22.5105 C   0  0  0  0  0  0
    7.9971   -1.2907   21.3821 C   0  0  0  0  0  0
    7.3560   -1.4978   18.1293 C   0  0  0  0  0  0
   10.4231   -4.1160   17.1180 C   0  0  0  0  0  0
   11.7324   -3.3718   18.9770 C   0  0  0  0  0  0
    9.5382   -2.4036   18.6253 C   0  0  0  0  0  0
    7.4777   -2.3975   21.5333 O   0  0  0  0  0  0
    4.7471   -0.1294   26.4918 Cl  0  0  0  0  0  0
    6.7930   -1.8768   26.2839 C   0  0  0  0  0  0
    8.3691   -1.8334   24.4807 C   0  0  0  0  0  0
    7.9632   -2.3571   25.7050 C   0  0  0  0  0  0
    8.8638   -3.3110   26.4675 C   0  0  0  0  0  0
    8.7294   -4.7802   26.1372 C   0  0  0  0  0  0
    8.5135   -0.8635   20.2104 N   0  0  0  0  0  0
    8.4683   -1.5217   18.9693 C   0  0  0  0  0  0
   10.7494   -2.5043   19.3603 C   0  0  0  0  0  0
   11.5683   -4.1778   17.8587 C   0  0  0  0  0  0
    9.3792   -3.2275   17.4775 C   0  0  0  0  0  0
    8.1768   -3.1029   16.7400 C   0  0  0  0  0  0
    5.9461    0.4812   24.0078 H   0  0  0  0  0  0
    9.1280    0.0698   22.5879 H   0  0  0  0  0  0
    7.5115    0.6002   22.2611 H   0  0  0  0  0  0
    6.5879   -0.7919   18.4090 H   0  0  0  0  0  0
   10.3069   -4.7475   16.2497 H   0  0  0  0  0  0
   12.6483   -3.4355   19.5458 H   0  0  0  0  0  0
    6.4221   -2.3012   27.2051 H   0  0  0  0  0  0
    9.2620   -2.2298   24.0203 H   0  0  0  0  0  0
    8.7133   -3.1685   27.5376 H   0  0  0  0  0  0
    9.9022   -3.0070   26.3353 H   0  0  0  0  0  0
    9.4252   -5.3555   26.7479 H   0  0  0  0  0  0
    7.7102   -5.1075   26.3424 H   0  0  0  0  0  0
    8.9558   -4.9382   25.0827 H   0  0  0  0  0  0
    8.9970    0.0221   20.1645 H   0  0  0  0  0  0
   10.8875   -1.8831   20.2329 H   0  0  0  0  0  0
   12.3578   -4.8586   17.5766 H   0  0  0  0  0  0
    8.0871   -3.7472   15.8779 H   0  0  0  0  0  0
  1  7  1  0  0  0
  1 23  2  0  0  0
  2  3  1  0  0  0
  2 12  1  0  0  0
  2 13  2  0  0  0
  3  4  2  0  0  0
  3 24  1  0  0  0
  4  5  1  0  0  0
  4 14  1  0  0  0
  5  6  1  0  0  0
  5 25  1  0  0  0
  5 26  1  0  0  0
  6 11  2  0  0  0
  6 18  1  0  0  0
  7 19  2  0  0  0
  7 27  1  0  0  0
  8 21  1  0  0  0
  8 22  2  0  0  0
  8 28  1  0  0  0
  9 20  1  0  0  0
  9 21  2  0  0  0
  9 29  1  0  0  0
 10 19  1  0  0  0
 10 20  2  0  0  0
 10 22  1  0  0  0
 13 15  1  0  0  0
 13 30  1  0  0  0
 14 15  2  0  0  0
 14 31  1  0  0  0
 15 16  1  0  0  0
 16 17  1  0  0  0
 16 32  1  0  0  0
 16 33  1  0  0  0
 17 34  1  0  0  0
 17 35  1  0  0  0
 17 36  1  0  0  0
 18 19  1  0  0  0
 18 37  1  0  0  0
 20 38  1  0  0  0
 21 39  1  0  0  0
 22 23  1  0  0  0
 23 40  1  0  0  0
M  END
> <s_m_entry_id>
1408

> <s_m_entry_name>
7gk4.pdb.1_A_ligand

> <s_pdb_PDB_TITLE>
GROUP DEPOSITION SARS-COV-2 MAIN PROTEASE IN COMPLEX WITH INHIBITORS FROM THE COVID MOONSHOT -- CRYSTAL STRUCTURE OF SARS-COV-2 MAIN PROTEASE IN COMPLEX WITH PET-UNK-BB7FFE78-1 (MPRO-P0777)

> <s_pdb_PDB_ID>
7GK4

> <s_m_Source_File>
7gk4.pdb.gz

> <s_user_Compound_ID>
PET-UNK-bb7ffe78-1

> <s_user_Monomer-Dimer>
Dimer

> <s_user_xcode>
Mpro-P0777

$$$$
