7GK5_ligand
                    3D
 Schrodinger Suite 2021-2.
 38 41  0  0  1  0            999 V2000
    7.0727   -2.0137   17.6408 N   0  0  0  0  0  0
    7.2226   -1.1508   24.4549 C   0  0  0  0  0  0
    6.0505   -0.3999   24.4165 C   0  0  0  0  0  0
    8.2359   -1.0568   23.3255 C   0  0  2  0  0  0
    8.4012    0.3511   22.6995 C   0  0  0  0  0  0
    9.0140    0.0328   21.3393 C   0  0  0  0  0  0
    8.3754   -1.7705   19.6701 C   0  0  0  0  0  0
    9.2255   -3.1109   17.8120 C   0  0  0  0  0  0
   11.3313   -4.2880   17.9802 C   0  0  0  0  0  0
   10.5879   -2.9584   19.8300 C   0  0  0  0  0  0
    7.3398   -2.9920   22.0956 O   0  0  0  0  0  0
    7.9219   -1.9189   22.1075 C   0  0  0  0  0  0
    7.4173   -2.0441   25.5007 C   0  0  0  0  0  0
    6.4489   -2.2127   26.4799 C   0  0  0  0  0  0
    5.2653   -1.4923   26.4229 C   0  0  0  0  0  0
    5.0836   -0.5967   25.3842 C   0  0  0  0  0  0
    3.5642    0.2471   25.2420 Cl  0  0  0  0  0  0
    8.4209   -1.2727   21.0110 N   0  0  0  0  0  0
    9.4104   -2.5898   19.1251 C   0  0  0  0  0  0
   11.5185   -3.7838   19.2616 C   0  0  0  0  0  0
   10.2124   -3.9686   17.2637 C   0  0  0  0  0  0
    8.0320   -2.7706   17.1300 C   0  0  0  0  0  0
    7.2566   -1.5347   18.8776 C   0  0  0  0  0  0
    5.9022    0.3301   23.6344 H   0  0  0  0  0  0
    9.2050   -1.3671   23.7163 H   0  0  0  0  0  0
    9.1160    0.9245   23.2897 H   0  0  0  0  0  0
    7.4173    0.7970   22.5542 H   0  0  0  0  0  0
   10.0927   -0.0798   21.4485 H   0  0  0  0  0  0
    8.6792    0.7727   20.6123 H   0  0  0  0  0  0
   12.0737   -4.9385   17.5420 H   0  0  0  0  0  0
   10.7580   -2.5858   20.8293 H   0  0  0  0  0  0
    8.3309   -2.6172   25.5584 H   0  0  0  0  0  0
    6.6155   -2.9070   27.2903 H   0  0  0  0  0  0
    4.5085   -1.6363   27.1799 H   0  0  0  0  0  0
   12.4063   -4.0429   19.8194 H   0  0  0  0  0  0
   10.0833   -4.3757   16.2717 H   0  0  0  0  0  0
    7.9305   -3.1707   16.1320 H   0  0  0  0  0  0
    6.5011   -0.9118   19.3334 H   0  0  0  0  0  0
  1 22  2  0  0  0
  1 23  1  0  0  0
  2  3  1  0  0  0
  2  4  1  0  0  0
  2 13  2  0  0  0
  3 16  2  0  0  0
  3 24  1  0  0  0
  4  5  1  0  0  0
  4 12  1  0  0  0
  4 25  1  0  0  0
  5  6  1  0  0  0
  5 26  1  0  0  0
  5 27  1  0  0  0
  6 18  1  0  0  0
  6 28  1  0  0  0
  6 29  1  0  0  0
  7 18  1  0  0  0
  7 19  1  0  0  0
  7 23  2  0  0  0
  8 19  1  0  0  0
  8 21  2  0  0  0
  8 22  1  0  0  0
  9 20  2  0  0  0
  9 21  1  0  0  0
  9 30  1  0  0  0
 10 19  2  0  0  0
 10 20  1  0  0  0
 10 31  1  0  0  0
 11 12  2  0  0  0
 12 18  1  0  0  0
 13 14  1  0  0  0
 13 32  1  0  0  0
 14 15  2  0  0  0
 14 33  1  0  0  0
 15 16  1  0  0  0
 15 34  1  0  0  0
 16 17  1  0  0  0
 20 35  1  0  0  0
 21 36  1  0  0  0
 22 37  1  0  0  0
 23 38  1  0  0  0
M  END
> <s_m_entry_id>
1434

> <s_m_entry_name>
_ligand

> <s_user_Compound_ID>
EDG-MED-5d232de5-7

> <s_user_Monomer-Dimer>
Dimer

> <s_user_xcode>
Mpro-P0793

$$$$
