7GK6_ligand
                    3D
 Schrodinger Suite 2021-2.
 40 43  0  0  1  0            999 V2000
    8.5508   -0.8995   20.4644 N   0  0  0  0  0  0
    9.5004   -2.0324   24.8734 C   0  0  0  0  0  0
   10.1084   -1.6803   23.5326 C   0  0  0  0  0  0
    8.2587   -0.2646   22.8206 C   0  0  1  0  0  0
    7.9914   -1.2672   21.6399 C   0  0  0  0  0  0
    8.4826   -1.5676   19.2264 C   0  0  0  0  0  0
    8.2610   -2.9794   16.8749 C   0  0  0  0  0  0
   11.6208   -4.1417   18.0178 C   0  0  0  0  0  0
   10.7515   -2.5832   19.6151 C   0  0  0  0  0  0
    7.4897   -0.7101   24.0477 C   0  0  0  0  0  0
    7.3423   -2.3046   21.7997 O   0  0  0  0  0  0
    9.7007   -0.3272   23.1208 N   0  0  1  0  0  0
    8.0549   -1.5974   24.9741 C   0  0  0  0  0  0
    7.2954   -1.9984   26.0736 C   0  0  0  0  0  0
    6.0165   -1.5086   26.2736 C   0  0  0  0  0  0
    6.2073   -0.2060   24.2597 C   0  0  0  0  0  0
    5.4948   -0.6112   25.3679 C   0  0  0  0  0  0
    3.9012    0.0375   25.6218 Cl  0  0  0  0  0  0
    9.5639   -2.4205   18.8465 C   0  0  0  0  0  0
   11.7472   -3.4242   19.2005 C   0  0  0  0  0  0
   10.4986   -4.0226   17.2451 C   0  0  0  0  0  0
    9.4449   -3.1558   17.6360 C   0  0  0  0  0  0
    7.2623   -2.1773   17.2200 N   0  0  0  0  0  0
    7.3850   -1.4972   18.3664 C   0  0  0  0  0  0
    9.0955   -0.0507   20.4074 H   0  0  0  0  0  0
   10.0776   -1.5603   25.6683 H   0  0  0  0  0  0
    9.5669   -3.1093   25.0308 H   0  0  0  0  0  0
    9.7795   -2.4014   22.7846 H   0  0  0  0  0  0
   11.1954   -1.7264   23.6037 H   0  0  0  0  0  0
    7.9708    0.7476   22.5349 H   0  0  0  0  0  0
    8.1299   -3.5174   15.9479 H   0  0  0  0  0  0
   12.4140   -4.8024   17.7000 H   0  0  0  0  0  0
   10.8753   -2.0387   20.5394 H   0  0  0  0  0  0
    9.9006    0.3257   23.8648 H   0  0  0  0  0  0
    7.7038   -2.7017   26.7851 H   0  0  0  0  0  0
    5.4428   -1.8309   27.1304 H   0  0  0  0  0  0
    5.7798    0.4961   23.5582 H   0  0  0  0  0  0
   12.6384   -3.5275   19.8023 H   0  0  0  0  0  0
   10.4100   -4.5901   16.3307 H   0  0  0  0  0  0
    6.5494   -0.8566   18.6077 H   0  0  0  0  0  0
  1  5  1  0  0  0
  1  6  1  0  0  0
  1 25  1  0  0  0
  2  3  1  0  0  0
  2 13  1  0  0  0
  2 26  1  0  0  0
  2 27  1  0  0  0
  3 12  1  0  0  0
  3 28  1  0  0  0
  3 29  1  0  0  0
  4  5  1  0  0  0
  4 10  1  0  0  0
  4 12  1  0  0  0
  4 30  1  0  0  0
  5 11  2  0  0  0
  6 19  1  0  0  0
  6 24  2  0  0  0
  7 22  1  0  0  0
  7 23  2  0  0  0
  7 31  1  0  0  0
  8 20  1  0  0  0
  8 21  2  0  0  0
  8 32  1  0  0  0
  9 19  1  0  0  0
  9 20  2  0  0  0
  9 33  1  0  0  0
 10 13  1  0  0  0
 10 16  2  0  0  0
 12 34  1  0  0  0
 13 14  2  0  0  0
 14 15  1  0  0  0
 14 35  1  0  0  0
 15 17  2  0  0  0
 15 36  1  0  0  0
 16 17  1  0  0  0
 16 37  1  0  0  0
 17 18  1  0  0  0
 19 22  2  0  0  0
 20 38  1  0  0  0
 21 22  1  0  0  0
 21 39  1  0  0  0
 23 24  1  0  0  0
 24 40  1  0  0  0
M  END
> <s_m_entry_id>
1410

> <s_m_entry_name>
7gk6.pdb.1_A_ligand

> <s_pdb_PDB_TITLE>
GROUP DEPOSITION SARS-COV-2 MAIN PROTEASE IN COMPLEX WITH INHIBITORS FROM THE COVID MOONSHOT -- CRYSTAL STRUCTURE OF SARS-COV-2 MAIN PROTEASE IN COMPLEX WITH MAT-POS-FB82B63D-1 (MPRO-P0800)

> <s_pdb_PDB_ID>
7GK6

> <s_m_Source_File>
7gk6.pdb.gz

> <s_user_Compound_ID>
MAT-POS-fb82b63d-1

> <s_user_Monomer-Dimer>
Dimer

> <s_user_xcode>
Mpro-P0800

$$$$
