7GK7_ligand
                    3D
 Schrodinger Suite 2021-2.
 67 72  0  0  1  0            999 V2000
   11.9759    2.8523   25.4919 N   0  0  0  0  0  0
    8.5462   -1.4256   21.0816 N   0  0  0  0  0  0
    9.0597   -3.6047   24.5611 C   0  0  0  0  0  0
    9.4714   -2.2509   24.0203 C   0  0  0  0  0  0
    8.2498   -1.4282   23.5450 C   0  0  1  0  0  0
    8.5837    0.0765   23.4128 C   0  0  0  0  0  0
    8.8844    0.8215   24.6991 C   0  0  0  0  0  0
    9.6581    4.2465   23.6494 C   0  0  0  0  0  0
   10.8392    2.6968   26.4018 C   0  0  0  0  0  0
   13.6897    3.6708   24.4257 C   0  0  0  0  0  0
    7.9095   -1.9841   22.1455 C   0  0  0  0  0  0
    7.8370   -2.5364   17.1202 C   0  0  0  0  0  0
    9.0467   -2.9769   17.7160 C   0  0  0  0  0  0
    9.9761   -3.8153   17.0522 C   0  0  0  0  0  0
   11.3991   -3.8060   18.9787 C   0  0  0  0  0  0
    9.3205   -2.5607   19.0498 C   0  0  0  0  0  0
    5.9497   -0.7702   24.4557 C   0  0  0  0  0  0
    7.1140   -2.9054   22.0183 O   0  0  0  0  0  0
    8.3520   -1.7379   19.7115 C   0  0  0  0  0  0
   10.5261   -3.0028   19.6547 C   0  0  0  0  0  0
   11.1238   -4.2133   17.6793 C   0  0  0  0  0  0
    6.9518   -1.7527   17.7226 N   0  0  0  0  0  0
    7.2183   -1.3704   18.9815 C   0  0  0  0  0  0
    8.1287   -3.4856   25.6525 O   0  0  0  0  0  0
    7.0581   -1.6189   24.5038 C   0  0  0  0  0  0
    7.0410   -2.6775   25.4243 C   0  0  0  0  0  0
    5.9429   -2.9165   26.2368 C   0  0  0  0  0  0
    4.8449   -2.0792   26.1592 C   0  0  0  0  0  0
    4.8643   -1.0202   25.2743 C   0  0  0  0  0  0
    3.4500   -0.0111   25.1282 Cl  0  0  0  0  0  0
    8.8709    0.2875   25.8039 O   0  0  0  0  0  0
    9.1532    2.1451   24.5739 N   0  0  0  0  0  0
    9.4986    3.0074   25.7202 C   0  0  2  0  0  0
    9.4074    4.4189   25.1349 C   0  0  0  0  0  0
    9.0839    2.8968   23.3043 C   0  0  0  0  0  0
   12.3280    2.0300   24.4803 C   0  0  0  0  0  0
   13.3547    2.4894   23.7997 N   0  3  0  0  0  0
   12.8587    3.9065   25.4664 C   0  0  0  0  0  0
    9.2405   -0.7071   21.2288 H   0  0  0  0  0  0
    9.9446   -4.1455   24.8967 H   0  0  0  0  0  0
    8.6082   -4.1925   23.7619 H   0  0  0  0  0  0
   10.1625   -2.3876   23.1884 H   0  0  0  0  0  0
   10.0025   -1.6973   24.7946 H   0  0  0  0  0  0
    7.7714    0.5796   22.8882 H   0  0  0  0  0  0
    9.4187    0.1996   22.7232 H   0  0  0  0  0  0
   10.7319    4.2412   23.4621 H   0  0  0  0  0  0
    9.1206    5.0194   23.0999 H   0  0  0  0  0  0
   10.9700    3.3548   27.2609 H   0  0  0  0  0  0
   10.8216    1.6779   26.7888 H   0  0  0  0  0  0
   14.5191    4.2588   24.0612 H   0  0  0  0  0  0
    7.5893   -2.8391   16.1135 H   0  0  0  0  0  0
    9.7806   -4.1451   16.0425 H   0  0  0  0  0  0
   12.3131   -4.1304   19.4539 H   0  0  0  0  0  0
    5.9449    0.0741   23.7823 H   0  0  0  0  0  0
   10.7483   -2.6941   20.6655 H   0  0  0  0  0  0
   11.8273   -4.8509   17.1644 H   0  0  0  0  0  0
    6.4729   -0.7291   19.4282 H   0  0  0  0  0  0
    5.9500   -3.7507   26.9227 H   0  0  0  0  0  0
    3.9844   -2.2575   26.7870 H   0  0  0  0  0  0
    8.7113    2.9030   26.4668 H   0  0  0  0  0  0
    8.4015    4.8096   25.2887 H   0  0  0  0  0  0
   10.1935    5.0398   25.5645 H   0  0  0  0  0  0
    9.7204    2.4129   22.5636 H   0  0  0  0  0  0
    8.0406    3.0132   23.0108 H   0  0  0  0  0  0
   11.7794    1.1150   24.3123 H   0  0  0  0  0  0
   13.8824    2.1756   22.9977 H   0  0  0  0  0  0
   12.7794    4.6951   26.2001 H   0  0  0  0  0  0
  1  9  1  0  0  0
  1 36  1  0  0  0
  1 38  1  0  0  0
  2 11  1  0  0  0
  2 19  1  0  0  0
  2 39  1  0  0  0
  3  4  1  0  0  0
  3 24  1  0  0  0
  3 40  1  0  0  0
  3 41  1  0  0  0
  4  5  1  0  0  0
  4 42  1  0  0  0
  4 43  1  0  0  0
  5  6  1  0  0  0
  5 11  1  0  0  0
  5 25  1  0  0  0
  6  7  1  0  0  0
  6 44  1  0  0  0
  6 45  1  0  0  0
  7 31  2  0  0  0
  7 32  1  0  0  0
  8 34  1  0  0  0
  8 35  1  0  0  0
  8 46  1  0  0  0
  8 47  1  0  0  0
  9 33  1  0  0  0
  9 48  1  0  0  0
  9 49  1  0  0  0
 10 37  1  0  0  0
 10 38  2  0  0  0
 10 50  1  0  0  0
 11 18  2  0  0  0
 12 13  1  0  0  0
 12 22  2  0  0  0
 12 51  1  0  0  0
 13 14  1  0  0  0
 13 16  2  0  0  0
 14 21  2  0  0  0
 14 52  1  0  0  0
 15 20  2  0  0  0
 15 21  1  0  0  0
 15 53  1  0  0  0
 16 19  1  0  0  0
 16 20  1  0  0  0
 17 25  1  0  0  0
 17 29  2  0  0  0
 17 54  1  0  0  0
 19 23  2  0  0  0
 20 55  1  0  0  0
 21 56  1  0  0  0
 22 23  1  0  0  0
 23 57  1  0  0  0
 24 26  1  0  0  0
 25 26  2  0  0  0
 26 27  1  0  0  0
 27 28  2  0  0  0
 27 58  1  0  0  0
 28 29  1  0  0  0
 28 59  1  0  0  0
 29 30  1  0  0  0
 32 33  1  0  0  0
 32 35  1  0  0  0
 33 34  1  0  0  0
 33 60  1  0  0  0
 34 61  1  0  0  0
 34 62  1  0  0  0
 35 63  1  0  0  0
 35 64  1  0  0  0
 36 37  2  0  0  0
 36 65  1  0  0  0
 37 66  1  0  0  0
 38 67  1  0  0  0
M  CHG  1  37   1
M  END
> <s_m_entry_id>
1412

> <s_m_entry_name>
7gk7.pdb.1_A_ligand

> <s_pdb_PDB_TITLE>
GROUP DEPOSITION SARS-COV-2 MAIN PROTEASE IN COMPLEX WITH INHIBITORS FROM THE COVID MOONSHOT -- CRYSTAL STRUCTURE OF SARS-COV-2 MAIN PROTEASE IN COMPLEX WITH EDG-MED-BA1AC7B9-21 (MPRO-P0805)

> <s_pdb_PDB_ID>
7GK7

> <s_m_Source_File>
7gk7.pdb.gz

> <s_user_Compound_ID>
EDG-MED-ba1ac7b9-21

> <s_user_Monomer-Dimer>
Dimer

> <s_user_xcode>
Mpro-P0805

$$$$
