7GK8_ligand
                    3D
 Schrodinger Suite 2021-2.
 45 48  0  0  1  0            999 V2000
    8.4500   -0.9347   20.6547 N   0  0  0  0  0  0
    7.9946   -1.4608   21.8134 C   0  0  0  0  0  0
    8.2983   -1.4679   19.3589 C   0  0  0  0  0  0
    7.1500   -1.3015   18.5806 C   0  0  0  0  0  0
    7.8423   -2.7400   16.9554 C   0  0  0  0  0  0
    9.0630   -3.0071   17.6164 C   0  0  0  0  0  0
   11.1826   -4.1539   17.8095 C   0  0  0  0  0  0
    9.3071   -2.3480   18.8546 C   0  0  0  0  0  0
    6.1680   -0.2087   24.2537 C   0  0  0  0  0  0
    5.4709   -1.5304   26.1441 C   0  0  0  0  0  0
    9.0070   -2.5437   25.2784 C   0  0  0  0  0  0
    3.7171    0.3139   25.2571 Cl  0  0  0  0  0  0
    5.2401   -0.5282   25.2292 C   0  0  0  0  0  0
    6.6726   -2.2112   26.1041 C   0  0  0  0  0  0
    7.6422   -1.9042   25.1497 C   0  0  0  0  0  0
    9.8499   -2.3723   24.0861 N   0  0  0  0  0  0
   10.7259   -3.2988   23.6040 C   0  0  0  0  0  0
   11.5531   -2.9888   22.7657 O   0  0  0  0  0  0
   10.6327   -4.7145   24.1164 C   0  0  0  0  0  0
    7.3688   -0.9170   24.1899 C   0  0  0  0  0  0
    8.3599   -0.6684   23.0698 C   0  0  1  0  0  0
    9.7754   -1.0164   23.5315 C   0  0  0  0  0  0
    7.3473   -2.5067   21.8643 O   0  0  0  0  0  0
   10.5212   -2.6285   19.5321 C   0  0  0  0  0  0
   11.4251   -3.5152   19.0180 C   0  0  0  0  0  0
   10.0327   -3.9096   17.1129 C   0  0  0  0  0  0
    6.9112   -1.9170   17.4139 N   0  0  0  0  0  0
    8.9621   -0.0642   20.6620 H   0  0  0  0  0  0
    6.3676   -0.6330   18.9084 H   0  0  0  0  0  0
    7.6217   -3.2205   16.0137 H   0  0  0  0  0  0
   11.9059   -4.8507   17.4123 H   0  0  0  0  0  0
    5.9601    0.5834   23.5494 H   0  0  0  0  0  0
    4.7181   -1.7746   26.8790 H   0  0  0  0  0  0
    8.8899   -3.6067   25.4890 H   0  0  0  0  0  0
    9.5199   -2.1299   26.1466 H   0  0  0  0  0  0
    6.8731   -2.9952   26.8192 H   0  0  0  0  0  0
   11.3965   -5.3263   23.6363 H   0  0  0  0  0  0
   10.7872   -4.7219   25.1954 H   0  0  0  0  0  0
    9.6469   -5.1198   23.8883 H   0  0  0  0  0  0
    8.3341    0.3928   22.8221 H   0  0  0  0  0  0
   10.4627   -0.9305   22.6899 H   0  0  0  0  0  0
   10.0978   -0.2981   24.2853 H   0  0  0  0  0  0
   10.7425   -2.1385   20.4687 H   0  0  0  0  0  0
   12.3359   -3.7170   19.5622 H   0  0  0  0  0  0
    9.8660   -4.4111   16.1710 H   0  0  0  0  0  0
  1  2  1  0  0  0
  1  3  1  0  0  0
  1 28  1  0  0  0
  2 21  1  0  0  0
  2 23  2  0  0  0
  3  4  2  0  0  0
  3  8  1  0  0  0
  4 27  1  0  0  0
  4 29  1  0  0  0
  5  6  1  0  0  0
  5 27  2  0  0  0
  5 30  1  0  0  0
  6  8  1  0  0  0
  6 26  2  0  0  0
  7 25  2  0  0  0
  7 26  1  0  0  0
  7 31  1  0  0  0
  8 24  2  0  0  0
  9 13  1  0  0  0
  9 20  2  0  0  0
  9 32  1  0  0  0
 10 13  2  0  0  0
 10 14  1  0  0  0
 10 33  1  0  0  0
 11 15  1  0  0  0
 11 16  1  0  0  0
 11 34  1  0  0  0
 11 35  1  0  0  0
 12 13  1  0  0  0
 14 15  2  0  0  0
 14 36  1  0  0  0
 15 20  1  0  0  0
 16 17  1  0  0  0
 16 22  1  0  0  0
 17 18  2  0  0  0
 17 19  1  0  0  0
 19 37  1  0  0  0
 19 38  1  0  0  0
 19 39  1  0  0  0
 20 21  1  0  0  0
 21 22  1  0  0  0
 21 40  1  0  0  0
 22 41  1  0  0  0
 22 42  1  0  0  0
 24 25  1  0  0  0
 24 43  1  0  0  0
 25 44  1  0  0  0
 26 45  1  0  0  0
M  END
> <s_m_entry_id>
1436

> <s_m_entry_name>
_ligand

> <s_user_Compound_ID>
MAT-POS-dd3ad2b5-2

> <s_user_Monomer-Dimer>
Dimer

> <s_user_xcode>
Mpro-P0808

$$$$
