7GK9_ligand
                    3D
 Schrodinger Suite 2021-2.
 46 50  0  0  1  0            999 V2000
    6.9170   -1.8578   17.9602 N   0  0  0  0  0  0
    8.8946   -3.6443   24.9714 C   0  0  0  0  0  0
    9.3871   -2.4192   24.2330 C   0  0  0  0  0  0
    8.2293   -1.5014   23.7676 C   0  0  1  0  0  0
    8.7665   -0.0525   23.8702 C   0  0  0  0  0  0
    8.6042    0.7889   22.6098 C   0  0  0  0  0  0
    7.8791   -1.9473   22.3475 C   0  0  0  0  0  0
    7.8183   -2.6402   17.3872 C   0  0  0  0  0  0
    9.9589   -3.9096   17.3793 C   0  0  0  0  0  0
   11.4065   -3.7650   19.2834 C   0  0  0  0  0  0
    7.0171   -1.6022   24.7083 C   0  0  0  0  0  0
    5.8913   -0.8042   24.5014 C   0  0  0  0  0  0
    7.1142   -2.8817   22.1593 O   0  0  0  0  0  0
    8.0800   -3.2899   26.0944 O   0  0  0  0  0  0
    6.9951   -2.5186   25.7654 C   0  0  0  0  0  0
    5.8773   -2.6816   26.5675 C   0  0  0  0  0  0
    4.7578   -1.9033   26.3319 C   0  0  0  0  0  0
    4.7844   -0.9694   25.3140 C   0  0  0  0  0  0
    3.3753    0.0176   25.0325 Cl  0  0  0  0  0  0
    8.4922   -1.3050   21.3006 N   0  0  0  0  0  0
    9.0859    0.0383   21.3868 C   0  0  0  0  0  0
    8.3038   -1.7590   19.9533 C   0  0  0  0  0  0
    9.2912   -2.5750   19.3230 C   0  0  0  0  0  0
   10.5205   -2.9517   19.9325 C   0  0  0  0  0  0
   11.1208   -4.2542   18.0127 C   0  0  0  0  0  0
    9.0232   -3.0507   18.0059 C   0  0  0  0  0  0
    7.1666   -1.4456   19.2100 C   0  0  0  0  0  0
    9.7484   -4.2296   25.3130 H   0  0  0  0  0  0
    8.3200   -4.2718   24.2902 H   0  0  0  0  0  0
    9.9739   -2.7290   23.3682 H   0  0  0  0  0  0
   10.0607   -1.8543   24.8773 H   0  0  0  0  0  0
    9.8187   -0.0775   24.1539 H   0  0  0  0  0  0
    8.2826    0.4530   24.7059 H   0  0  0  0  0  0
    9.1719    1.7134   22.7151 H   0  0  0  0  0  0
    7.5545    1.0537   22.4830 H   0  0  0  0  0  0
    7.6558   -3.0068   16.3844 H   0  0  0  0  0  0
    9.7477   -4.2932   16.3921 H   0  0  0  0  0  0
   12.3394   -4.0339   19.7567 H   0  0  0  0  0  0
    5.8900   -0.0664   23.7127 H   0  0  0  0  0  0
    5.8866   -3.4096   27.3653 H   0  0  0  0  0  0
    3.8749   -2.0289   26.9411 H   0  0  0  0  0  0
   10.1722   -0.0466   21.4179 H   0  0  0  0  0  0
    8.8327    0.6049   20.4906 H   0  0  0  0  0  0
   10.7490   -2.5854   20.9224 H   0  0  0  0  0  0
   11.8264   -4.9117   17.5265 H   0  0  0  0  0  0
    6.4546   -0.8162   19.7234 H   0  0  0  0  0  0
  1  8  2  0  0  0
  1 27  1  0  0  0
  2  3  1  0  0  0
  2 14  1  0  0  0
  2 28  1  0  0  0
  2 29  1  0  0  0
  3  4  1  0  0  0
  3 30  1  0  0  0
  3 31  1  0  0  0
  4  5  1  0  0  0
  4  7  1  0  0  0
  4 11  1  0  0  0
  5  6  1  0  0  0
  5 32  1  0  0  0
  5 33  1  0  0  0
  6 21  1  0  0  0
  6 34  1  0  0  0
  6 35  1  0  0  0
  7 13  2  0  0  0
  7 20  1  0  0  0
  8 26  1  0  0  0
  8 36  1  0  0  0
  9 25  1  0  0  0
  9 26  2  0  0  0
  9 37  1  0  0  0
 10 24  1  0  0  0
 10 25  2  0  0  0
 10 38  1  0  0  0
 11 12  1  0  0  0
 11 15  2  0  0  0
 12 18  2  0  0  0
 12 39  1  0  0  0
 14 15  1  0  0  0
 15 16  1  0  0  0
 16 17  2  0  0  0
 16 40  1  0  0  0
 17 18  1  0  0  0
 17 41  1  0  0  0
 18 19  1  0  0  0
 20 21  1  0  0  0
 20 22  1  0  0  0
 21 42  1  0  0  0
 21 43  1  0  0  0
 22 23  1  0  0  0
 22 27  2  0  0  0
 23 24  2  0  0  0
 23 26  1  0  0  0
 24 44  1  0  0  0
 25 45  1  0  0  0
 27 46  1  0  0  0
M  END
> <s_m_entry_id>
1438

> <s_m_entry_name>
_ligand

> <s_user_Compound_ID>
ALP-POS-477dc5b7-5

> <s_user_Monomer-Dimer>
Dimer

> <s_user_xcode>
Mpro-P0811

$$$$
