7GKA_ligand
                    3D
 Schrodinger Suite 2021-2.
 38 41  0  0  1  0            999 V2000
    7.1409   -2.0811   17.3832 N   0  0  0  0  0  0
    7.1123   -0.5823   24.0398 C   0  0  0  0  0  0
    5.8913   -0.0058   24.3596 C   0  0  0  0  0  0
    7.6343   -0.3033   22.6410 C   0  0  1  0  0  0
    9.0518    0.2533   22.5015 C   0  0  0  0  0  0
    9.3412   -0.0230   21.0168 C   0  0  0  0  0  0
    8.4290   -1.7828   19.4123 C   0  0  0  0  0  0
    9.2921   -3.1780   17.6113 C   0  0  0  0  0  0
   11.3794   -4.3751   17.8497 C   0  0  0  0  0  0
   10.6184   -2.9984   19.6506 C   0  0  0  0  0  0
    7.2197   -2.6405   21.9856 O   0  0  0  0  0  0
    7.7168   -1.5452   21.7701 C   0  0  0  0  0  0
    7.6571   -1.5343   24.8923 C   0  0  0  0  0  0
    6.9634   -1.9494   26.0199 C   0  0  0  0  0  0
    5.7078   -1.4230   26.3000 C   0  0  0  0  0  0
    5.1854   -0.4646   25.4464 C   0  0  0  0  0  0
    3.5333    0.0578   25.6427 Cl  0  0  0  0  0  0
    8.4935   -1.1954   20.7126 N   0  0  0  0  0  0
    9.4607   -2.6294   18.9137 C   0  0  0  0  0  0
   11.5456   -3.8520   19.1233 C   0  0  0  0  0  0
   10.2831   -4.0511   17.1007 C   0  0  0  0  0  0
    8.1040   -2.8558   16.9079 C   0  0  0  0  0  0
    7.3181   -1.5629   18.6044 C   0  0  0  0  0  0
    5.4997    0.7995   23.7558 H   0  0  0  0  0  0
    6.9506    0.3973   22.1617 H   0  0  0  0  0  0
    9.7307   -0.3396   23.1146 H   0  0  0  0  0  0
    9.0309    1.3304   22.6674 H   0  0  0  0  0  0
   10.3898   -0.2966   20.8992 H   0  0  0  0  0  0
    9.0080    0.8266   20.4208 H   0  0  0  0  0  0
   12.1205   -5.0457   17.4405 H   0  0  0  0  0  0
   10.7756   -2.6028   20.6431 H   0  0  0  0  0  0
    8.6278   -1.9574   24.6796 H   0  0  0  0  0  0
    7.3989   -2.6830   26.6822 H   0  0  0  0  0  0
    5.1613   -1.7622   27.1676 H   0  0  0  0  0  0
   12.4139   -4.1187   19.7075 H   0  0  0  0  0  0
   10.1769   -4.4682   16.1102 H   0  0  0  0  0  0
    8.0124   -3.2882   15.9225 H   0  0  0  0  0  0
    6.5639   -0.9191   19.0324 H   0  0  0  0  0  0
  1 22  2  0  0  0
  1 23  1  0  0  0
  2  3  1  0  0  0
  2  4  1  0  0  0
  2 13  2  0  0  0
  3 16  2  0  0  0
  3 24  1  0  0  0
  4  5  1  0  0  0
  4 12  1  0  0  0
  4 25  1  0  0  0
  5  6  1  0  0  0
  5 26  1  0  0  0
  5 27  1  0  0  0
  6 18  1  0  0  0
  6 28  1  0  0  0
  6 29  1  0  0  0
  7 18  1  0  0  0
  7 19  1  0  0  0
  7 23  2  0  0  0
  8 19  1  0  0  0
  8 21  2  0  0  0
  8 22  1  0  0  0
  9 20  2  0  0  0
  9 21  1  0  0  0
  9 30  1  0  0  0
 10 19  2  0  0  0
 10 20  1  0  0  0
 10 31  1  0  0  0
 11 12  2  0  0  0
 12 18  1  0  0  0
 13 14  1  0  0  0
 13 32  1  0  0  0
 14 15  2  0  0  0
 14 33  1  0  0  0
 15 16  1  0  0  0
 15 34  1  0  0  0
 16 17  1  0  0  0
 20 35  1  0  0  0
 21 36  1  0  0  0
 22 37  1  0  0  0
 23 38  1  0  0  0
M  END
> <s_m_entry_id>
1440

> <s_m_entry_name>
_ligand

> <s_user_Compound_ID>
EDG-MED-5d232de5-8

> <s_user_Monomer-Dimer>
Dimer

> <s_user_xcode>
Mpro-P0816

$$$$
