7GKB_ligand
                    3D
 Schrodinger Suite 2021-2.
 39 42  0  0  1  0            999 V2000
    8.9172   -1.1550   20.6696 N   0  0  0  0  0  0
    8.0048   -2.8189   16.9766 C   0  0  0  0  0  0
    7.3942   -1.4957   18.7233 C   0  0  0  0  0  0
    8.6421   -1.5479   19.3485 C   0  0  0  0  0  0
    8.1502   -1.2551   21.7789 C   0  0  0  0  0  0
    8.5903   -0.3750   22.9523 C   0  0  1  0  0  0
   10.0979   -2.0693   23.9929 C   0  0  0  0  0  0
    5.9596   -1.2371   26.2318 C   0  0  0  0  0  0
    6.4035   -0.0592   24.2027 C   0  0  0  0  0  0
    9.6464   -2.3431   18.7105 C   0  0  0  0  0  0
    3.9657    0.3351   25.3038 Cl  0  0  0  0  0  0
    5.5577   -0.3477   25.2565 C   0  0  0  0  0  0
    5.1718   -1.4238   27.3180 F   0  0  0  0  0  0
    7.1724   -1.8775   26.1700 C   0  0  0  0  0  0
    7.6496   -0.6779   24.1036 C   0  0  0  0  0  0
    8.0128   -1.5931   25.1054 C   0  0  0  0  0  0
    9.2266   -2.2442   25.1335 O   0  0  0  0  0  0
   10.0306   -0.6780   23.4121 C   0  0  0  0  0  0
    7.2430   -2.0753   21.8874 O   0  0  0  0  0  0
    7.0717   -2.0877   17.5638 N   0  0  0  0  0  0
   10.9073   -2.6159   19.3079 C   0  0  0  0  0  0
   11.7300   -3.5217   18.7203 C   0  0  0  0  0  0
   12.9109   -3.8099   19.3287 F   0  0  0  0  0  0
    9.3064   -3.0129   17.5000 C   0  0  0  0  0  0
   10.2341   -3.9242   16.9384 C   0  0  0  0  0  0
   11.4277   -4.1749   17.5502 C   0  0  0  0  0  0
    9.8035   -0.7262   20.8948 H   0  0  0  0  0  0
    7.7940   -3.3122   16.0392 H   0  0  0  0  0  0
    6.5859   -0.9412   19.1767 H   0  0  0  0  0  0
    8.5062    0.6760   22.6755 H   0  0  0  0  0  0
    9.8375   -2.7959   23.2234 H   0  0  0  0  0  0
   11.1247   -2.2908   24.2842 H   0  0  0  0  0  0
    6.1017    0.6506   23.4467 H   0  0  0  0  0  0
    7.4505   -2.5827   26.9393 H   0  0  0  0  0  0
   10.3300    0.0465   24.1694 H   0  0  0  0  0  0
   10.7063   -0.6073   22.5596 H   0  0  0  0  0  0
   11.1971   -2.1055   20.2145 H   0  0  0  0  0  0
   10.0009   -4.4312   16.0138 H   0  0  0  0  0  0
   12.1309   -4.8765   17.1262 H   0  0  0  0  0  0
  1  4  1  0  0  0
  1  5  1  0  0  0
  1 27  1  0  0  0
  2 20  1  0  0  0
  2 24  2  0  0  0
  2 28  1  0  0  0
  3  4  1  0  0  0
  3 20  2  0  0  0
  3 29  1  0  0  0
  4 10  2  0  0  0
  5  6  1  0  0  0
  5 19  2  0  0  0
  6 15  1  0  0  0
  6 18  1  0  0  0
  6 30  1  0  0  0
  7 17  1  0  0  0
  7 18  1  0  0  0
  7 31  1  0  0  0
  7 32  1  0  0  0
  8 12  1  0  0  0
  8 13  1  0  0  0
  8 14  2  0  0  0
  9 12  2  0  0  0
  9 15  1  0  0  0
  9 33  1  0  0  0
 10 21  1  0  0  0
 10 24  1  0  0  0
 11 12  1  0  0  0
 14 16  1  0  0  0
 14 34  1  0  0  0
 15 16  2  0  0  0
 16 17  1  0  0  0
 18 35  1  0  0  0
 18 36  1  0  0  0
 21 22  2  0  0  0
 21 37  1  0  0  0
 22 23  1  0  0  0
 22 26  1  0  0  0
 24 25  1  0  0  0
 25 26  2  0  0  0
 25 38  1  0  0  0
 26 39  1  0  0  0
M  END
> <s_m_entry_id>
1414

> <s_m_entry_name>
7gkb.pdb.1_A_ligand

> <s_pdb_PDB_TITLE>
GROUP DEPOSITION SARS-COV-2 MAIN PROTEASE IN COMPLEX WITH INHIBITORS FROM THE COVID MOONSHOT -- CRYSTAL STRUCTURE OF SARS-COV-2 MAIN PROTEASE IN COMPLEX WITH MAT-POS-96F51285-5 (MPRO-P0831)

> <s_pdb_PDB_ID>
7GKB

> <s_m_Source_File>
7gkb.pdb.gz

> <s_user_Compound_ID>
MAT-POS-96f51285-5

> <s_user_Monomer-Dimer>
Dimer

> <s_user_xcode>
Mpro-P0831

$$$$
