7GKD_ligand
                    3D
 Schrodinger Suite 2021-2.
 39 42  0  0  1  0            999 V2000
    8.6586   -0.8435   20.1910 N   0  0  0  0  0  0
   11.3413   -4.4010   17.7040 N   0  0  0  0  0  0
   10.0472   -0.6001   22.9536 C   0  0  0  0  0  0
    8.5610   -0.4422   22.5846 C   0  0  1  0  0  0
    8.2099   -1.3182   21.3804 C   0  0  0  0  0  0
    8.5475   -1.4490   18.9264 C   0  0  0  0  0  0
    7.4221   -1.3152   18.1171 C   0  0  0  0  0  0
    9.1874   -3.3074   17.4720 C   0  0  0  0  0  0
   10.7625   -2.6087   19.1818 C   0  0  0  0  0  0
    7.7143   -0.8443   23.7796 C   0  0  0  0  0  0
    5.7658   -0.5504   25.1747 C   0  0  0  0  0  0
    4.2199    0.1999   25.4239 Cl  0  0  0  0  0  0
    6.2503   -1.5028   26.0634 C   0  0  0  0  0  0
    5.4030   -1.8741   27.5301 Cl  0  0  0  0  0  0
    6.4935   -0.2243   24.0447 C   0  0  0  0  0  0
    8.1884   -1.8144   24.6805 C   0  0  0  0  0  0
    7.4456   -2.1449   25.8104 C   0  0  0  0  0  0
   10.3211   -2.0254   23.3977 C   0  0  0  0  0  0
    9.4128   -2.4190   24.4780 N   0  0  0  0  0  0
    7.5900   -2.3749   21.4979 O   0  0  0  0  0  0
    9.4998   -2.4501   18.5613 C   0  0  0  0  0  0
   11.6195   -3.5668   18.7185 C   0  0  0  0  0  0
   10.1605   -4.2722   17.1046 C   0  0  0  0  0  0
    7.9641   -3.0894   16.7997 C   0  0  0  0  0  0
    7.1150   -2.1182   17.0912 N   0  0  0  0  0  0
    9.1364    0.0454   20.1498 H   0  0  0  0  0  0
   10.2953    0.0864   23.7630 H   0  0  0  0  0  0
   10.6636   -0.3655   22.0857 H   0  0  0  0  0  0
    8.3617    0.6009   22.3391 H   0  0  0  0  0  0
    6.7188   -0.5157   18.2980 H   0  0  0  0  0  0
   11.0395   -1.9760   20.0120 H   0  0  0  0  0  0
    6.1067    0.5197   23.3641 H   0  0  0  0  0  0
    7.8050   -2.9042   26.4893 H   0  0  0  0  0  0
   11.3519   -2.1063   23.7426 H   0  0  0  0  0  0
   10.1925   -2.7002   22.5514 H   0  0  0  0  0  0
    9.7146   -3.1653   25.0880 H   0  0  0  0  0  0
   12.5722   -3.6293   19.2233 H   0  0  0  0  0  0
    9.8964   -4.9256   16.2861 H   0  0  0  0  0  0
    7.6703   -3.7393   15.9887 H   0  0  0  0  0  0
  1  5  1  0  0  0
  1  6  1  0  0  0
  1 26  1  0  0  0
  2 22  1  0  0  0
  2 23  2  0  0  0
  3  4  1  0  0  0
  3 18  1  0  0  0
  3 27  1  0  0  0
  3 28  1  0  0  0
  4  5  1  0  0  0
  4 10  1  0  0  0
  4 29  1  0  0  0
  5 20  2  0  0  0
  6  7  1  0  0  0
  6 21  2  0  0  0
  7 25  2  0  0  0
  7 30  1  0  0  0
  8 21  1  0  0  0
  8 23  1  0  0  0
  8 24  2  0  0  0
  9 21  1  0  0  0
  9 22  2  0  0  0
  9 31  1  0  0  0
 10 15  1  0  0  0
 10 16  2  0  0  0
 11 12  1  0  0  0
 11 13  1  0  0  0
 11 15  2  0  0  0
 13 14  1  0  0  0
 13 17  2  0  0  0
 15 32  1  0  0  0
 16 17  1  0  0  0
 16 19  1  0  0  0
 17 33  1  0  0  0
 18 19  1  0  0  0
 18 34  1  0  0  0
 18 35  1  0  0  0
 19 36  1  0  0  0
 22 37  1  0  0  0
 23 38  1  0  0  0
 24 25  1  0  0  0
 24 39  1  0  0  0
M  END
> <s_m_entry_id>
1416

> <s_m_entry_name>
7gkd.pdb.1_A_ligand

> <s_pdb_PDB_TITLE>
GROUP DEPOSITION SARS-COV-2 MAIN PROTEASE IN COMPLEX WITH INHIBITORS FROM THE COVID MOONSHOT -- CRYSTAL STRUCTURE OF SARS-COV-2 MAIN PROTEASE IN COMPLEX WITH ALP-UNI-8D415491-3 (MPRO-P0850)

> <s_pdb_PDB_ID>
7GKD

> <s_m_Source_File>
7gkd.pdb.gz

> <s_user_Compound_ID>
ALP-UNI-8d415491-3

> <s_user_Monomer-Dimer>
Dimer

> <s_user_xcode>
Mpro-P0850

$$$$
