7GKE_ligand
                    3D
 Schrodinger Suite 2021-2.
 44 47  0  0  1  0            999 V2000
   10.0805   -2.1701   23.6352 N   0  0  0  0  0  0
    7.0305   -2.1012   17.2638 N   0  0  0  0  0  0
    8.3396   -1.5570   19.2377 C   0  0  0  0  0  0
    7.2071   -1.4541   18.4237 C   0  0  0  0  0  0
    8.0050   -2.9013   16.8558 C   0  0  0  0  0  0
    9.2170   -3.1079   17.5613 C   0  0  0  0  0  0
   10.2491   -3.9621   17.0977 C   0  0  0  0  0  0
   11.5714   -3.4575   19.0285 C   0  0  0  0  0  0
    7.5921   -0.8616   24.0603 C   0  0  0  0  0  0
    5.5527   -0.6022   25.2969 C   0  0  0  0  0  0
    7.1861   -2.1608   26.0550 C   0  0  0  0  0  0
    3.9783    0.1325   25.4559 Cl  0  0  0  0  0  0
    6.3559   -0.2380   24.2345 C   0  0  0  0  0  0
    5.9493   -1.5607   26.2074 C   0  0  0  0  0  0
    8.0234   -1.8253   24.9893 C   0  0  0  0  0  0
    9.3945   -2.4656   24.9025 C   0  0  0  0  0  0
   11.3839   -2.8117   23.4200 C   0  0  0  0  0  0
   12.2702   -2.1761   22.8246 O   0  0  0  0  0  0
   11.5709   -4.0614   23.8625 N   0  0  0  0  0  0
    8.4733   -0.5049   22.8798 C   0  0  1  0  0  0
    9.9373   -0.7709   23.2287 C   0  0  0  0  0  0
    8.0606   -1.3804   21.6952 C   0  0  0  0  0  0
    7.4351   -2.4345   21.8436 O   0  0  0  0  0  0
    8.4735   -0.9234   20.4865 N   0  0  0  0  0  0
    9.3938   -2.4156   18.7924 C   0  0  0  0  0  0
   10.6031   -2.6195   19.5084 C   0  0  0  0  0  0
   11.3954   -4.1256   17.8227 C   0  0  0  0  0  0
    6.4391   -0.7917   18.7949 H   0  0  0  0  0  0
    7.9032   -3.4474   15.9296 H   0  0  0  0  0  0
   10.1334   -4.4910   16.1632 H   0  0  0  0  0  0
   12.4835   -3.6051   19.5878 H   0  0  0  0  0  0
    7.5180   -2.9021   26.7669 H   0  0  0  0  0  0
    6.0330    0.5242   23.5408 H   0  0  0  0  0  0
    5.2970   -1.8322   27.0243 H   0  0  0  0  0  0
   10.0082   -2.1219   25.7352 H   0  0  0  0  0  0
    9.2982   -3.5451   25.0191 H   0  0  0  0  0  0
   12.4607   -4.5186   23.7234 H   0  0  0  0  0  0
   10.8221   -4.5471   24.3353 H   0  0  0  0  0  0
    8.3403    0.5465   22.6250 H   0  0  0  0  0  0
   10.5592   -0.5817   22.3537 H   0  0  0  0  0  0
   10.2385   -0.1215   24.0506 H   0  0  0  0  0  0
    8.9216   -0.0204   20.5492 H   0  0  0  0  0  0
   10.7524   -2.1017   20.4443 H   0  0  0  0  0  0
   12.1752   -4.7789   17.4601 H   0  0  0  0  0  0
  1 16  1  0  0  0
  1 17  1  0  0  0
  1 21  1  0  0  0
  2  4  1  0  0  0
  2  5  2  0  0  0
  3  4  2  0  0  0
  3 24  1  0  0  0
  3 25  1  0  0  0
  4 28  1  0  0  0
  5  6  1  0  0  0
  5 29  1  0  0  0
  6  7  1  0  0  0
  6 25  2  0  0  0
  7 27  2  0  0  0
  7 30  1  0  0  0
  8 26  2  0  0  0
  8 27  1  0  0  0
  8 31  1  0  0  0
  9 13  1  0  0  0
  9 15  2  0  0  0
  9 20  1  0  0  0
 10 12  1  0  0  0
 10 13  2  0  0  0
 10 14  1  0  0  0
 11 14  2  0  0  0
 11 15  1  0  0  0
 11 32  1  0  0  0
 13 33  1  0  0  0
 14 34  1  0  0  0
 15 16  1  0  0  0
 16 35  1  0  0  0
 16 36  1  0  0  0
 17 18  2  0  0  0
 17 19  1  0  0  0
 19 37  1  0  0  0
 19 38  1  0  0  0
 20 21  1  0  0  0
 20 22  1  0  0  0
 20 39  1  0  0  0
 21 40  1  0  0  0
 21 41  1  0  0  0
 22 23  2  0  0  0
 22 24  1  0  0  0
 24 42  1  0  0  0
 25 26  1  0  0  0
 26 43  1  0  0  0
 27 44  1  0  0  0
M  END
> <s_m_entry_id>
1446

> <s_m_entry_name>
_ligand

> <s_user_Compound_ID>
MAT-POS-dd3ad2b5-3

> <s_user_Monomer-Dimer>
Dimer

> <s_user_xcode>
Mpro-P0851

$$$$
