7GKF_ligand
                    3D
 Schrodinger Suite 2021-2.
 40 43  0  0  1  0            999 V2000
    8.9128   -1.0162   20.3687 N   0  0  0  0  0  0
    8.0419   -2.8633   16.7663 C   0  0  0  0  0  0
    7.4080   -1.4565   18.4335 C   0  0  0  0  0  0
    8.6496   -1.4677   19.0679 C   0  0  0  0  0  0
    8.1824   -1.1533   21.4895 C   0  0  0  0  0  0
    8.5374   -0.1725   22.6106 C   0  0  1  0  0  0
   10.3741   -1.6479   23.4969 C   0  0  0  0  0  0
    6.1663   -1.3645   25.9962 C   0  0  0  0  0  0
    6.4583    0.0026   24.0453 C   0  0  0  0  0  0
    9.6587   -2.3014   18.4902 C   0  0  0  0  0  0
    4.0912    0.2585   25.2887 Cl  0  0  0  0  0  0
    5.6856   -0.4014   25.1158 C   0  0  0  0  0  0
    5.2320   -1.8685   27.3664 Cl  0  0  0  0  0  0
    7.4176   -1.9215   25.8051 C   0  0  0  0  0  0
    7.7113   -0.5599   23.8185 C   0  0  0  0  0  0
    8.1969   -1.5219   24.7210 C   0  0  0  0  0  0
    9.4603   -2.0623   24.5590 N   0  0  0  0  0  0
   10.0330   -0.2495   23.0121 C   0  0  0  0  0  0
    7.3736   -2.0686   21.6503 O   0  0  0  0  0  0
    7.1006   -2.1097   17.3065 N   0  0  0  0  0  0
   10.8902   -2.5716   19.1411 C   0  0  0  0  0  0
   11.7010   -3.5345   18.6382 C   0  0  0  0  0  0
   12.8115   -3.8708   19.3437 F   0  0  0  0  0  0
    9.3358   -3.0312   17.3130 C   0  0  0  0  0  0
   10.2597   -3.9869   16.8269 C   0  0  0  0  0  0
   11.4268   -4.2329   17.4887 C   0  0  0  0  0  0
    9.7613   -0.5039   20.5636 H   0  0  0  0  0  0
    7.8449   -3.3990   15.8492 H   0  0  0  0  0  0
    6.5929   -0.8845   18.8519 H   0  0  0  0  0  0
    8.2892    0.8438   22.3043 H   0  0  0  0  0  0
   10.3043   -2.3480   22.6642 H   0  0  0  0  0  0
   11.3975   -1.6624   23.8723 H   0  0  0  0  0  0
    6.0922    0.7637   23.3720 H   0  0  0  0  0  0
    7.7892   -2.6646   26.4953 H   0  0  0  0  0  0
    9.7887   -2.7778   25.1919 H   0  0  0  0  0  0
   10.2331    0.4693   23.8069 H   0  0  0  0  0  0
   10.6533   -0.0028   22.1504 H   0  0  0  0  0  0
   11.1687   -2.0137   20.0231 H   0  0  0  0  0  0
   10.0449   -4.5331   15.9201 H   0  0  0  0  0  0
   12.1306   -4.9649   17.1206 H   0  0  0  0  0  0
  1  4  1  0  0  0
  1  5  1  0  0  0
  1 27  1  0  0  0
  2 20  1  0  0  0
  2 24  2  0  0  0
  2 28  1  0  0  0
  3  4  1  0  0  0
  3 20  2  0  0  0
  3 29  1  0  0  0
  4 10  2  0  0  0
  5  6  1  0  0  0
  5 19  2  0  0  0
  6 15  1  0  0  0
  6 18  1  0  0  0
  6 30  1  0  0  0
  7 17  1  0  0  0
  7 18  1  0  0  0
  7 31  1  0  0  0
  7 32  1  0  0  0
  8 12  1  0  0  0
  8 13  1  0  0  0
  8 14  2  0  0  0
  9 12  2  0  0  0
  9 15  1  0  0  0
  9 33  1  0  0  0
 10 21  1  0  0  0
 10 24  1  0  0  0
 11 12  1  0  0  0
 14 16  1  0  0  0
 14 34  1  0  0  0
 15 16  2  0  0  0
 16 17  1  0  0  0
 17 35  1  0  0  0
 18 36  1  0  0  0
 18 37  1  0  0  0
 21 22  2  0  0  0
 21 38  1  0  0  0
 22 23  1  0  0  0
 22 26  1  0  0  0
 24 25  1  0  0  0
 25 26  2  0  0  0
 25 39  1  0  0  0
 26 40  1  0  0  0
M  END
> <s_m_entry_id>
1418

> <s_m_entry_name>
7gkf.pdb.1_A_ligand

> <s_pdb_PDB_TITLE>
GROUP DEPOSITION SARS-COV-2 MAIN PROTEASE IN COMPLEX WITH INHIBITORS FROM THE COVID MOONSHOT -- CRYSTAL STRUCTURE OF SARS-COV-2 MAIN PROTEASE IN COMPLEX WITH ALP-UNI-8D415491-6 (MPRO-P0872)

> <s_pdb_PDB_ID>
7GKF

> <s_m_Source_File>
7gkf.pdb.gz

> <s_user_Compound_ID>
ALP-UNI-8d415491-6

> <s_user_Monomer-Dimer>
Dimer

> <s_user_xcode>
Mpro-P0872

$$$$
