7GKG_ligand
                    3D
 Schrodinger Suite 2021-2.
 40 43  0  0  1  0            999 V2000
    8.4872   -1.1319   20.7943 N   0  0  0  0  0  0
    6.4965   -2.3526   26.1203 C   0  0  0  0  0  0
    5.2905   -1.6718   26.1663 C   0  0  0  0  0  0
    5.0428   -0.6552   25.2537 C   0  0  0  0  0  0
    5.9716   -0.2836   24.2984 C   0  0  0  0  0  0
    7.1634   -0.9931   24.2251 C   0  0  0  0  0  0
    8.3425   -1.6644   19.4941 C   0  0  0  0  0  0
    9.1861   -3.1079   17.7084 C   0  0  0  0  0  0
   11.2999   -4.2657   17.9363 C   0  0  0  0  0  0
   10.5604   -2.8309   19.7039 C   0  0  0  0  0  0
    7.2056   -2.5968   21.9424 O   0  0  0  0  0  0
    7.9375   -1.6155   21.9331 C   0  0  0  0  0  0
    8.3159   -0.8958   23.2565 C   0  0  2  0  0  0
    3.4705    0.0975   25.2313 Cl  0  0  0  0  0  0
    7.4208   -2.0094   25.1382 C   0  0  0  0  0  0
    8.6748   -2.5681   24.9026 N   0  0  0  0  0  0
    9.4119   -1.6729   24.0215 C   0  0  0  0  0  0
    8.7260    0.5752   23.0384 C   0  0  0  0  0  0
    9.3747   -2.5153   18.9884 C   0  0  0  0  0  0
   11.4918   -3.6872   19.1830 C   0  0  0  0  0  0
   10.1754   -3.9923   17.2064 C   0  0  0  0  0  0
    7.9942   -2.8000   17.0070 C   0  0  0  0  0  0
    7.0399   -2.0057   17.4715 N   0  0  0  0  0  0
    7.2227   -1.4618   18.6821 C   0  0  0  0  0  0
    9.0489   -0.3056   20.9421 H   0  0  0  0  0  0
    6.7042   -3.1326   26.8380 H   0  0  0  0  0  0
    4.5506   -1.9333   26.9085 H   0  0  0  0  0  0
    5.7611    0.5404   23.6326 H   0  0  0  0  0  0
   12.0422   -4.9392   17.5334 H   0  0  0  0  0  0
   10.7379   -2.3927   20.6752 H   0  0  0  0  0  0
    8.9218   -3.4515   25.3255 H   0  0  0  0  0  0
    9.9963   -0.9758   24.6222 H   0  0  0  0  0  0
    9.9964   -2.2624   23.3148 H   0  0  0  0  0  0
    9.5587    0.6203   22.3363 H   0  0  0  0  0  0
    7.8804    1.1327   22.6349 H   0  0  0  0  0  0
    9.0290    1.0134   23.9896 H   0  0  0  0  0  0
   12.3826   -3.9115   19.7513 H   0  0  0  0  0  0
   10.0445   -4.4565   16.2398 H   0  0  0  0  0  0
    7.8190   -3.2223   16.0283 H   0  0  0  0  0  0
    6.4190   -0.8239   19.0197 H   0  0  0  0  0  0
  1  7  1  0  0  0
  1 12  1  0  0  0
  1 25  1  0  0  0
  2  3  2  0  0  0
  2 15  1  0  0  0
  2 26  1  0  0  0
  3  4  1  0  0  0
  3 27  1  0  0  0
  4  5  2  0  0  0
  4 14  1  0  0  0
  5  6  1  0  0  0
  5 28  1  0  0  0
  6 13  1  0  0  0
  6 15  2  0  0  0
  7 19  1  0  0  0
  7 24  2  0  0  0
  8 19  1  0  0  0
  8 21  2  0  0  0
  8 22  1  0  0  0
  9 20  2  0  0  0
  9 21  1  0  0  0
  9 29  1  0  0  0
 10 19  2  0  0  0
 10 20  1  0  0  0
 10 30  1  0  0  0
 11 12  2  0  0  0
 12 13  1  0  0  0
 13 17  1  0  0  0
 13 18  1  0  0  0
 15 16  1  0  0  0
 16 17  1  0  0  0
 16 31  1  0  0  0
 17 32  1  0  0  0
 17 33  1  0  0  0
 18 34  1  0  0  0
 18 35  1  0  0  0
 18 36  1  0  0  0
 20 37  1  0  0  0
 21 38  1  0  0  0
 22 23  2  0  0  0
 22 39  1  0  0  0
 23 24  1  0  0  0
 24 40  1  0  0  0
M  END
> <s_m_entry_id>
1420

> <s_m_entry_name>
7gkg.pdb.1_A_ligand

> <s_pdb_PDB_TITLE>
GROUP DEPOSITION SARS-COV-2 MAIN PROTEASE IN COMPLEX WITH INHIBITORS FROM THE COVID MOONSHOT -- CRYSTAL STRUCTURE OF SARS-COV-2 MAIN PROTEASE IN COMPLEX WITH EDJ-MED-2F867453-1 (MPRO-P0878)

> <s_pdb_PDB_ID>
7GKG

> <s_m_Source_File>
7gkg.pdb.gz

> <s_user_Compound_ID>
EDJ-MED-2f867453-1

> <s_user_Monomer-Dimer>
Dimer

> <s_user_xcode>
Mpro-P0878

$$$$
