7GKH_ligand
                    3D
 Schrodinger Suite 2021-2.
 41 44  0  0  1  0            999 V2000
    8.7668   -0.8876   20.2093 N   0  0  0  0  0  0
   10.1499   -0.4394   22.9554 C   0  0  0  0  0  0
    8.6610   -0.3256   22.5632 C   0  0  1  0  0  0
    8.3187   -1.2847   21.4227 C   0  0  0  0  0  0
    8.5573   -1.5775   18.9947 C   0  0  0  0  0  0
    7.3712   -1.4266   18.2755 C   0  0  0  0  0  0
    9.2119   -3.2079   17.3721 C   0  0  0  0  0  0
   11.1013   -4.1080   19.8413 C   0  0  0  0  0  0
    7.8062   -0.6815   23.7629 C   0  0  0  0  0  0
    5.8121   -0.3982   25.0895 C   0  0  0  0  0  0
    4.2699    0.3677   25.3049 Cl  0  0  0  0  0  0
    6.2737   -1.3438   25.9972 C   0  0  0  0  0  0
    5.3806   -1.7090   27.4376 Cl  0  0  0  0  0  0
    6.5721   -0.0713   23.9828 C   0  0  0  0  0  0
    8.2677   -1.6322   24.6907 C   0  0  0  0  0  0
    7.4907   -1.9681   25.7968 C   0  0  0  0  0  0
   10.4547   -1.8321   23.4826 C   0  0  0  0  0  0
    9.5160   -2.2108   24.5383 N   0  0  0  0  0  0
    7.6939   -2.3333   21.6089 O   0  0  0  0  0  0
    9.5104   -2.4935   18.5247 C   0  0  0  0  0  0
   10.8254   -2.7509   19.2470 C   0  0  0  0  0  0
   11.8759   -3.6568   18.6593 C   0  0  0  0  0  0
    8.0049   -2.9924   16.7405 C   0  0  0  0  0  0
    7.0875   -2.1201   17.1683 N   0  0  0  0  0  0
    9.2987   -0.0335   20.1220 H   0  0  0  0  0  0
   10.3801    0.2982   23.7242 H   0  0  0  0  0  0
   10.7716   -0.2373   22.0831 H   0  0  0  0  0  0
    8.4445    0.6970   22.2543 H   0  0  0  0  0  0
    6.6248   -0.7199   18.6070 H   0  0  0  0  0  0
    9.9211   -3.9221   16.9806 H   0  0  0  0  0  0
   10.3262   -4.6826   19.3343 H   0  0  0  0  0  0
   11.7967   -3.8169   20.6285 H   0  0  0  0  0  0
    6.2016    0.6647   23.2846 H   0  0  0  0  0  0
    7.8367   -2.7141   26.4969 H   0  0  0  0  0  0
   11.4714   -1.8572   23.8749 H   0  0  0  0  0  0
   10.3916   -2.5511   22.6658 H   0  0  0  0  0  0
    9.8186   -2.9338   25.1753 H   0  0  0  0  0  0
   11.2103   -1.9080   19.8209 H   0  0  0  0  0  0
   11.2844   -4.1246   17.8724 H   0  0  0  0  0  0
   12.7549   -3.2589   19.1666 H   0  0  0  0  0  0
    7.7572   -3.5451   15.8462 H   0  0  0  0  0  0
  1  4  1  0  0  0
  1  5  1  0  0  0
  1 25  1  0  0  0
  2  3  1  0  0  0
  2 17  1  0  0  0
  2 26  1  0  0  0
  2 27  1  0  0  0
  3  4  1  0  0  0
  3  9  1  0  0  0
  3 28  1  0  0  0
  4 19  2  0  0  0
  5  6  1  0  0  0
  5 20  2  0  0  0
  6 24  2  0  0  0
  6 29  1  0  0  0
  7 20  1  0  0  0
  7 23  2  0  0  0
  7 30  1  0  0  0
  8 21  1  0  0  0
  8 22  1  0  0  0
  8 31  1  0  0  0
  8 32  1  0  0  0
  9 14  1  0  0  0
  9 15  2  0  0  0
 10 11  1  0  0  0
 10 12  1  0  0  0
 10 14  2  0  0  0
 12 13  1  0  0  0
 12 16  2  0  0  0
 14 33  1  0  0  0
 15 16  1  0  0  0
 15 18  1  0  0  0
 16 34  1  0  0  0
 17 18  1  0  0  0
 17 35  1  0  0  0
 17 36  1  0  0  0
 18 37  1  0  0  0
 20 21  1  0  0  0
 21 22  1  0  0  0
 21 38  1  0  0  0
 22 39  1  0  0  0
 22 40  1  0  0  0
 23 24  1  0  0  0
 23 41  1  0  0  0
M  END
> <s_m_entry_id>
1422

> <s_m_entry_name>
7gkh.pdb.1_A_ligand

> <s_pdb_PDB_TITLE>
GROUP DEPOSITION SARS-COV-2 MAIN PROTEASE IN COMPLEX WITH INHIBITORS FROM THE COVID MOONSHOT -- CRYSTAL STRUCTURE OF SARS-COV-2 MAIN PROTEASE IN COMPLEX WITH ALP-UNI-8D415491-1 (MPRO-P0884)

> <s_pdb_PDB_ID>
7GKH

> <s_m_Source_File>
7gkh.pdb.gz

> <s_user_Compound_ID>
ALP-UNI-8d415491-1

> <s_user_Monomer-Dimer>
Dimer

> <s_user_xcode>
Mpro-P0884

$$$$
