7GKI_ligand
                    3D
 Schrodinger Suite 2021-2.
 37 39  0  0  1  0            999 V2000
    8.8209   -1.3009   20.7284 N   0  0  0  0  0  0
    9.3730   -3.0695   17.5493 C   0  0  0  0  0  0
    8.0866   -2.8994   16.9901 C   0  0  0  0  0  0
    7.4039   -1.5815   18.7081 C   0  0  0  0  0  0
    8.6282   -1.6266   19.3778 C   0  0  0  0  0  0
    7.9862   -1.4580   21.7734 C   0  0  0  0  0  0
    7.4338   -0.8614   24.1751 C   0  0  0  0  0  0
    5.7985   -1.5041   26.3526 C   0  0  0  0  0  0
    6.2056   -0.2320   24.3439 C   0  0  0  0  0  0
   10.9340   -2.6095   19.3656 C   0  0  0  0  0  0
    3.7877    0.0849   25.4965 Cl  0  0  0  0  0  0
    5.3985   -0.5783   25.4102 C   0  0  0  0  0  0
    7.0323   -2.1158   26.1997 C   0  0  0  0  0  0
    7.8415   -1.7973   25.1184 C   0  0  0  0  0  0
    8.2809   -0.5592   22.9584 C   0  0  0  0  0  0
    7.1305   -2.3380   21.8225 O   0  0  0  0  0  0
    7.1282   -2.1801   17.5418 N   0  0  0  0  0  0
    9.6687   -2.3898   18.7623 C   0  0  0  0  0  0
   10.3409   -3.9464   17.0101 C   0  0  0  0  0  0
   11.5378   -4.1357   17.6367 C   0  0  0  0  0  0
   11.8609   -3.4743   18.8223 C   0  0  0  0  0  0
   13.1875   -3.7160   19.4965 C   0  0  0  0  0  0
    9.6908   -0.8846   21.0283 H   0  0  0  0  0  0
    7.8383   -3.3742   16.0523 H   0  0  0  0  0  0
    6.5779   -1.0276   19.1294 H   0  0  0  0  0  0
    5.1541   -1.7380   27.1872 H   0  0  0  0  0  0
    5.8856    0.5246   23.6428 H   0  0  0  0  0  0
   11.1947   -2.0923   20.2772 H   0  0  0  0  0  0
    7.3675   -2.8438   26.9237 H   0  0  0  0  0  0
    8.7986   -2.2867   25.0148 H   0  0  0  0  0  0
    8.1376    0.4814   22.6674 H   0  0  0  0  0  0
    9.3352   -0.6424   23.2220 H   0  0  0  0  0  0
   10.1373   -4.4763   16.0914 H   0  0  0  0  0  0
   12.2663   -4.8131   17.2162 H   0  0  0  0  0  0
   13.7695   -4.4272   18.9102 H   0  0  0  0  0  0
   13.7336   -2.7757   19.5726 H   0  0  0  0  0  0
   13.0200   -4.1201   20.4949 H   0  0  0  0  0  0
  1  5  1  0  0  0
  1  6  1  0  0  0
  1 23  1  0  0  0
  2  3  1  0  0  0
  2 18  1  0  0  0
  2 19  2  0  0  0
  3 17  2  0  0  0
  3 24  1  0  0  0
  4  5  2  0  0  0
  4 17  1  0  0  0
  4 25  1  0  0  0
  5 18  1  0  0  0
  6 15  1  0  0  0
  6 16  2  0  0  0
  7  9  1  0  0  0
  7 14  2  0  0  0
  7 15  1  0  0  0
  8 12  1  0  0  0
  8 13  2  0  0  0
  8 26  1  0  0  0
  9 12  2  0  0  0
  9 27  1  0  0  0
 10 18  2  0  0  0
 10 21  1  0  0  0
 10 28  1  0  0  0
 11 12  1  0  0  0
 13 14  1  0  0  0
 13 29  1  0  0  0
 14 30  1  0  0  0
 15 31  1  0  0  0
 15 32  1  0  0  0
 19 20  1  0  0  0
 19 33  1  0  0  0
 20 21  2  0  0  0
 20 34  1  0  0  0
 21 22  1  0  0  0
 22 35  1  0  0  0
 22 36  1  0  0  0
 22 37  1  0  0  0
M  END
> <s_m_entry_id>
1424

> <s_m_entry_name>
7gki.pdb.1_A_ligand

> <s_pdb_PDB_TITLE>
GROUP DEPOSITION SARS-COV-2 MAIN PROTEASE IN COMPLEX WITH INHIBITORS FROM THE COVID MOONSHOT -- CRYSTAL STRUCTURE OF SARS-COV-2 MAIN PROTEASE IN COMPLEX WITH RUB-POS-1325A9EA-4 (MPRO-P0887)

> <s_pdb_PDB_ID>
7GKI

> <s_m_Source_File>
7gki.pdb.gz

> <s_user_Compound_ID>
RUB-POS-1325a9ea-4

> <s_user_Monomer-Dimer>
Dimer

> <s_user_xcode>
Mpro-P0887

$$$$
