7GKJ_ligand
                    3D
 Schrodinger Suite 2021-2.
 62 67  0  0  1  0            999 V2000
   11.7141    3.6389   25.3641 N   0  0  0  0  0  0
   12.4886    3.9533   23.3439 N   0  0  0  0  0  0
   12.9644    4.1591   25.4473 C   0  0  0  0  0  0
   11.4597    3.5259   24.0420 C   0  0  0  0  0  0
    8.9662    1.0976   24.6324 C   0  0  0  0  0  0
    8.5066    0.4702   23.3319 C   0  0  0  0  0  0
    8.2765   -1.0582   23.4041 C   0  0  2  0  0  0
    9.2472   -3.1881   24.3721 C   0  0  0  0  0  0
    5.0078   -1.9134   26.1176 C   0  0  0  0  0  0
    5.9789   -0.5637   24.3694 C   0  0  0  0  0  0
    7.9111   -1.6904   22.0486 C   0  0  0  0  0  0
    7.8885   -2.6881   17.1252 C   0  0  0  0  0  0
    9.1149   -3.0111   17.7566 C   0  0  0  0  0  0
   10.0931   -3.8474   17.1662 C   0  0  0  0  0  0
   11.4878   -3.6236   19.0946 C   0  0  0  0  0  0
    9.3518   -2.4787   19.0542 C   0  0  0  0  0  0
    7.1421   -2.6404   21.9840 O   0  0  0  0  0  0
    8.5235   -1.1845   20.9550 N   0  0  0  0  0  0
    8.3375   -1.6574   19.6405 C   0  0  0  0  0  0
   10.5700   -2.8106   19.7004 C   0  0  0  0  0  0
   11.2505   -4.1384   17.8273 C   0  0  0  0  0  0
    6.9507   -1.9200   17.6653 N   0  0  0  0  0  0
    7.1810   -1.4313   18.8921 C   0  0  0  0  0  0
    7.1279   -1.3501   24.3802 C   0  0  0  0  0  0
    4.9384   -0.8632   25.2274 C   0  0  0  0  0  0
    3.4753    0.0789   25.1371 Cl  0  0  0  0  0  0
    6.1536   -2.6881   26.1624 C   0  0  0  0  0  0
    7.2036   -2.3992   25.3074 C   0  0  0  0  0  0
    8.3427   -3.1430   25.4981 O   0  0  0  0  0  0
    9.5584   -1.8087   23.8342 C   0  0  0  0  0  0
    8.9356    0.4874   25.6913 O   0  0  0  0  0  0
    9.4180    2.3704   24.6232 N   0  0  0  0  0  0
    9.3835    3.2000   25.8322 C   0  0  0  0  0  0
   10.7701    3.2887   26.4311 C   0  0  0  0  0  0
   10.1542    2.9848   23.5097 C   0  0  1  0  0  0
    9.3657    4.0986   22.8364 C   0  0  0  0  0  0
   13.4614    4.3604   24.2567 N   0  0  0  0  0  0
   13.4075    4.3476   26.4140 H   0  0  0  0  0  0
    9.2325    0.6894   22.5489 H   0  0  0  0  0  0
    7.5901    0.9580   22.9998 H   0  0  0  0  0  0
    8.8100   -3.7960   23.5800 H   0  0  0  0  0  0
   10.1739   -3.6782   24.6710 H   0  0  0  0  0  0
    4.1735   -2.1241   26.7702 H   0  0  0  0  0  0
    5.9048    0.2749   23.6928 H   0  0  0  0  0  0
    7.6698   -3.0745   16.1407 H   0  0  0  0  0  0
    9.9268   -4.2619   16.1828 H   0  0  0  0  0  0
   12.4084   -3.8710   19.6022 H   0  0  0  0  0  0
    9.1672   -0.4118   21.0487 H   0  0  0  0  0  0
   10.7680   -2.4119   20.6844 H   0  0  0  0  0  0
   11.9912   -4.7742   17.3652 H   0  0  0  0  0  0
    6.3867   -0.8212   19.2964 H   0  0  0  0  0  0
    6.2230   -3.5096   26.8601 H   0  0  0  0  0  0
   10.0783   -1.2304   24.5979 H   0  0  0  0  0  0
   10.2313   -1.8954   22.9810 H   0  0  0  0  0  0
    8.7022    2.7559   26.5580 H   0  0  0  0  0  0
    9.0338    4.2003   25.5763 H   0  0  0  0  0  0
   10.7854    4.0632   27.1979 H   0  0  0  0  0  0
   11.0444    2.3231   26.8560 H   0  0  0  0  0  0
   10.3720    2.2152   22.7692 H   0  0  0  0  0  0
    8.4256    3.6998   22.4554 H   0  0  0  0  0  0
    9.1586    4.8867   23.5604 H   0  0  0  0  0  0
    9.9474    4.5083   22.0106 H   0  0  0  0  0  0
  1  3  1  0  0  0
  1  4  1  0  0  0
  1 34  1  0  0  0
  2  4  2  0  0  0
  2 37  1  0  0  0
  3 37  2  0  0  0
  3 38  1  0  0  0
  4 35  1  0  0  0
  5  6  1  0  0  0
  5 31  2  0  0  0
  5 32  1  0  0  0
  6  7  1  0  0  0
  6 39  1  0  0  0
  6 40  1  0  0  0
  7 11  1  0  0  0
  7 24  1  0  0  0
  7 30  1  0  0  0
  8 29  1  0  0  0
  8 30  1  0  0  0
  8 41  1  0  0  0
  8 42  1  0  0  0
  9 25  1  0  0  0
  9 27  2  0  0  0
  9 43  1  0  0  0
 10 24  1  0  0  0
 10 25  2  0  0  0
 10 44  1  0  0  0
 11 17  2  0  0  0
 11 18  1  0  0  0
 12 13  1  0  0  0
 12 22  2  0  0  0
 12 45  1  0  0  0
 13 14  1  0  0  0
 13 16  2  0  0  0
 14 21  2  0  0  0
 14 46  1  0  0  0
 15 20  2  0  0  0
 15 21  1  0  0  0
 15 47  1  0  0  0
 16 19  1  0  0  0
 16 20  1  0  0  0
 18 19  1  0  0  0
 18 48  1  0  0  0
 19 23  2  0  0  0
 20 49  1  0  0  0
 21 50  1  0  0  0
 22 23  1  0  0  0
 23 51  1  0  0  0
 24 28  2  0  0  0
 25 26  1  0  0  0
 27 28  1  0  0  0
 27 52  1  0  0  0
 28 29  1  0  0  0
 30 53  1  0  0  0
 30 54  1  0  0  0
 32 33  1  0  0  0
 32 35  1  0  0  0
 33 34  1  0  0  0
 33 55  1  0  0  0
 33 56  1  0  0  0
 34 57  1  0  0  0
 34 58  1  0  0  0
 35 36  1  0  0  0
 35 59  1  0  0  0
 36 60  1  0  0  0
 36 61  1  0  0  0
 36 62  1  0  0  0
M  END
> <s_m_entry_id>
1444

> <s_m_entry_name>
_ligand

> <s_user_Compound_ID>
EDG-MED-ba1ac7b9-19

> <s_user_Monomer-Dimer>
Dimer

> <s_user_xcode>
Mpro-P0904

$$$$
