7GKK_ligand
                    3D
 Schrodinger Suite 2021-2.
 41 42  0  0  1  0            999 V2000
    8.8043   -1.0091   20.4707 N   0  0  0  0  0  0
    9.4406   -2.4335   18.6115 C   0  0  0  0  0  0
    9.1566   -3.0559   17.4064 C   0  0  0  0  0  0
    7.9162   -2.8217   16.8441 C   0  0  0  0  0  0
    7.2746   -1.4369   18.5501 C   0  0  0  0  0  0
    8.4873   -1.5893   19.2181 C   0  0  0  0  0  0
    8.4655   -0.3575   22.7720 C   0  0  0  0  0  0
    7.3686   -1.9501   26.0457 C   0  0  0  0  0  0
    5.6192   -0.5486   25.2569 C   0  0  0  0  0  0
    4.0000    0.0808   25.4108 Cl  0  0  0  0  0  0
    6.0836   -1.4494   26.1899 C   0  0  0  0  0  0
    8.1520   -1.5644   24.9671 C   0  0  0  0  0  0
    6.3897   -0.1475   24.1812 C   0  0  0  0  0  0
    7.6657   -0.6806   24.0159 C   0  0  0  0  0  0
    8.1635   -1.3000   21.6235 C   0  0  0  0  0  0
    7.3884   -2.2487   21.7476 O   0  0  0  0  0  0
    6.9801   -2.0385   17.3918 N   0  0  0  0  0  0
   10.7100   -2.4421   19.2144 O   0  0  0  0  0  0
   11.2519   -3.6609   19.8667 C   0  0  0  0  0  0
   10.1777   -4.3613   20.6719 C   0  0  0  0  0  0
   12.3473   -3.1399   20.7683 C   0  0  0  0  0  0
   11.8209   -4.5746   18.8014 C   0  0  0  0  0  0
    9.5508   -0.3322   20.5393 H   0  0  0  0  0  0
    9.8927   -3.6958   16.9425 H   0  0  0  0  0  0
    7.6534   -3.2841   15.9042 H   0  0  0  0  0  0
    6.5054   -0.8024   18.9652 H   0  0  0  0  0  0
    9.5296   -0.3991   23.0045 H   0  0  0  0  0  0
    8.2580    0.6672   22.4638 H   0  0  0  0  0  0
    7.7631   -2.6429   26.7743 H   0  0  0  0  0  0
    5.4704   -1.7669   27.0203 H   0  0  0  0  0  0
    9.1538   -1.9535   24.8608 H   0  0  0  0  0  0
    6.0009    0.5737   23.4775 H   0  0  0  0  0  0
   10.5969   -5.2514   21.1410 H   0  0  0  0  0  0
    9.8030   -3.6875   21.4424 H   0  0  0  0  0  0
    9.3590   -4.6499   20.0128 H   0  0  0  0  0  0
   12.8106   -3.9731   21.2968 H   0  0  0  0  0  0
   13.0994   -2.6276   20.1683 H   0  0  0  0  0  0
   11.9230   -2.4428   21.4909 H   0  0  0  0  0  0
   12.2220   -5.4736   19.2694 H   0  0  0  0  0  0
   11.0332   -4.8510   18.1004 H   0  0  0  0  0  0
   12.6177   -4.0578   18.2664 H   0  0  0  0  0  0
  1  6  1  0  0  0
  1 15  1  0  0  0
  1 23  1  0  0  0
  2  3  1  0  0  0
  2  6  2  0  0  0
  2 18  1  0  0  0
  3  4  2  0  0  0
  3 24  1  0  0  0
  4 17  1  0  0  0
  4 25  1  0  0  0
  5  6  1  0  0  0
  5 17  2  0  0  0
  5 26  1  0  0  0
  7 14  1  0  0  0
  7 15  1  0  0  0
  7 27  1  0  0  0
  7 28  1  0  0  0
  8 11  1  0  0  0
  8 12  2  0  0  0
  8 29  1  0  0  0
  9 10  1  0  0  0
  9 11  2  0  0  0
  9 13  1  0  0  0
 11 30  1  0  0  0
 12 14  1  0  0  0
 12 31  1  0  0  0
 13 14  2  0  0  0
 13 32  1  0  0  0
 15 16  2  0  0  0
 18 19  1  0  0  0
 19 20  1  0  0  0
 19 21  1  0  0  0
 19 22  1  0  0  0
 20 33  1  0  0  0
 20 34  1  0  0  0
 20 35  1  0  0  0
 21 36  1  0  0  0
 21 37  1  0  0  0
 21 38  1  0  0  0
 22 39  1  0  0  0
 22 40  1  0  0  0
 22 41  1  0  0  0
M  END
> <s_m_entry_id>
1426

> <s_m_entry_name>
7gkk.pdb.1_A_ligand

> <s_pdb_PDB_TITLE>
GROUP DEPOSITION SARS-COV-2 MAIN PROTEASE IN COMPLEX WITH INHIBITORS FROM THE COVID MOONSHOT -- CRYSTAL STRUCTURE OF SARS-COV-2 MAIN PROTEASE IN COMPLEX WITH JIN-POS-6DC588A4-6 (MPRO-P0906)

> <s_pdb_PDB_ID>
7GKK

> <s_m_Source_File>
7gkk.pdb.gz

> <s_user_Compound_ID>
JIN-POS-6dc588a4-6

> <s_user_Monomer-Dimer>
Dimer

> <s_user_xcode>
Mpro-P0906

$$$$
