7GKL_ligand
                    3D
 Schrodinger Suite 2021-2.
 31 32  0  0  1  0            999 V2000
    8.7153   -1.0839   20.4244 N   0  0  0  0  0  0
    7.2770   -1.4237   18.4715 C   0  0  0  0  0  0
    8.4627   -1.6675   19.1606 C   0  0  0  0  0  0
    8.1989   -1.4934   21.6054 C   0  0  0  0  0  0
    8.4461   -0.5427   22.7607 C   0  0  0  0  0  0
    7.6163   -0.8889   23.9767 C   0  0  0  0  0  0
    7.2020   -2.2911   25.8987 C   0  0  0  0  0  0
    6.3853   -0.2745   24.1818 C   0  0  0  0  0  0
    4.0007    0.0269   25.4034 Cl  0  0  0  0  0  0
    5.5729   -0.6989   25.2155 C   0  0  0  0  0  0
    5.9600   -1.7053   26.0774 C   0  0  0  0  0  0
    8.0225   -1.8842   24.8576 C   0  0  0  0  0  0
    7.5584   -2.5370   21.7466 O   0  0  0  0  0  0
    9.3844   -2.5580   18.5956 C   0  0  0  0  0  0
   10.6830   -2.8704   19.2904 C   0  0  0  0  0  0
   11.4730   -3.6846   18.5801 F   0  0  0  0  0  0
   10.4960   -3.4821   20.4646 F   0  0  0  0  0  0
   11.4160   -1.7800   19.5227 F   0  0  0  0  0  0
    6.9735   -2.0119   17.3101 N   0  0  0  0  0  0
    7.8659   -2.8646   16.7966 C   0  0  0  0  0  0
    9.0783   -3.1719   17.3883 C   0  0  0  0  0  0
    9.3311   -0.2868   20.4985 H   0  0  0  0  0  0
    6.5518   -0.7311   18.8728 H   0  0  0  0  0  0
    8.2205    0.4763   22.4460 H   0  0  0  0  0  0
    9.5032   -0.5617   23.0258 H   0  0  0  0  0  0
    7.5345   -3.0679   26.5715 H   0  0  0  0  0  0
    6.0688    0.5301   23.5345 H   0  0  0  0  0  0
    5.3163   -2.0377   26.8785 H   0  0  0  0  0  0
    8.9886   -2.3515   24.7361 H   0  0  0  0  0  0
    7.6598   -3.3635   15.8612 H   0  0  0  0  0  0
    9.7772   -3.8638   16.9419 H   0  0  0  0  0  0
  1  3  1  0  0  0
  1  4  1  0  0  0
  1 22  1  0  0  0
  2  3  1  0  0  0
  2 19  2  0  0  0
  2 23  1  0  0  0
  3 14  2  0  0  0
  4  5  1  0  0  0
  4 13  2  0  0  0
  5  6  1  0  0  0
  5 24  1  0  0  0
  5 25  1  0  0  0
  6  8  1  0  0  0
  6 12  2  0  0  0
  7 11  2  0  0  0
  7 12  1  0  0  0
  7 26  1  0  0  0
  8 10  2  0  0  0
  8 27  1  0  0  0
  9 10  1  0  0  0
 10 11  1  0  0  0
 11 28  1  0  0  0
 12 29  1  0  0  0
 14 15  1  0  0  0
 14 21  1  0  0  0
 15 16  1  0  0  0
 15 17  1  0  0  0
 15 18  1  0  0  0
 19 20  1  0  0  0
 20 21  2  0  0  0
 20 30  1  0  0  0
 21 31  1  0  0  0
M  END
> <s_m_entry_id>
1448

> <s_m_entry_name>
7gkl.pdb.1_A_ligand

> <s_pdb_PDB_TITLE>
GROUP DEPOSITION SARS-COV-2 MAIN PROTEASE IN COMPLEX WITH INHIBITORS FROM THE COVID MOONSHOT -- CRYSTAL STRUCTURE OF SARS-COV-2 MAIN PROTEASE IN COMPLEX WITH SAM-UNK-2684B532-12 (MPRO-P0925)

> <s_pdb_PDB_ID>
7GKL

> <s_m_Source_File>
7gkl.pdb.gz

> <s_user_Compound_ID>
SAM-UNK-2684b532-12

> <s_user_Monomer-Dimer>
Dimer

> <s_user_xcode>
Mpro-P0925

$$$$
