7GKM_ligand
                    3D
 Schrodinger Suite 2021-2.
 47 51  0  0  1  0            999 V2000
    8.5973   -1.2435   21.2004 N   0  0  0  0  0  0
    9.2783   -3.3821   24.7034 C   0  0  0  0  0  0
    9.5687   -1.9975   24.1699 C   0  0  0  0  0  0
    8.2944   -1.2742   23.6705 C   0  0  1  0  0  0
    8.6068    0.2384   23.6199 C   0  0  0  0  0  0
    9.6099    0.5802   22.5252 C   0  0  0  0  0  0
    7.9743   -1.8194   22.2791 C   0  0  0  0  0  0
    7.7852   -2.6042   17.3191 C   0  0  0  0  0  0
    9.9466   -3.8367   17.2028 C   0  0  0  0  0  0
   11.4195   -3.7859   19.0876 C   0  0  0  0  0  0
    7.1084   -1.4938   24.6263 C   0  0  0  0  0  0
    5.9725   -0.6898   24.5246 C   0  0  0  0  0  0
    7.2228   -2.7698   22.1468 O   0  0  0  0  0  0
    8.2437   -3.3207   25.7146 N   0  0  0  0  0  0
    7.1253   -2.5483   25.5534 C   0  0  0  0  0  0
    5.9975   -2.8144   26.3285 C   0  0  0  0  0  0
    4.8602   -2.0403   26.1910 C   0  0  0  0  0  0
    4.8649   -0.9873   25.2985 C   0  0  0  0  0  0
    3.4140   -0.0451   25.0934 Cl  0  0  0  0  0  0
    9.0773    0.1480   21.1759 C   0  0  0  0  0  0
    8.3763   -1.7372   19.8703 C   0  0  0  0  0  0
    9.3304   -2.5609   19.2010 C   0  0  0  0  0  0
   10.5580   -2.9798   19.7768 C   0  0  0  0  0  0
   11.1149   -4.2134   17.8027 C   0  0  0  0  0  0
    9.0224   -3.0049   17.8812 C   0  0  0  0  0  0
    6.9013   -1.8378   17.9435 N   0  0  0  0  0  0
    7.2083   -1.4198   19.1800 C   0  0  0  0  0  0
   10.1859   -3.8016   25.1376 H   0  0  0  0  0  0
    8.9498   -4.0245   23.8864 H   0  0  0  0  0  0
   10.2888   -2.0671   23.3546 H   0  0  0  0  0  0
   10.0420   -1.4007   24.9495 H   0  0  0  0  0  0
    8.9995    0.5599   24.5846 H   0  0  0  0  0  0
    7.6840    0.7938   23.4524 H   0  0  0  0  0  0
   10.5522    0.0698   22.7240 H   0  0  0  0  0  0
    9.7870    1.6557   22.5180 H   0  0  0  0  0  0
    7.5151   -2.9249   16.3239 H   0  0  0  0  0  0
    9.7206   -4.1734   16.2019 H   0  0  0  0  0  0
   12.3485   -4.0970   19.5421 H   0  0  0  0  0  0
    5.9656    0.1521   23.8481 H   0  0  0  0  0  0
    8.3632   -3.8670   26.5557 H   0  0  0  0  0  0
    6.0103   -3.6276   27.0392 H   0  0  0  0  0  0
    3.9815   -2.2625   26.7784 H   0  0  0  0  0  0
    8.2619    0.8079   20.8795 H   0  0  0  0  0  0
    9.8632    0.2475   20.4271 H   0  0  0  0  0  0
   10.8071   -2.6519   20.7752 H   0  0  0  0  0  0
   11.8114   -4.8496   17.2768 H   0  0  0  0  0  0
    6.4630   -0.7888   19.6411 H   0  0  0  0  0  0
  1  7  1  0  0  0
  1 20  1  0  0  0
  1 21  1  0  0  0
  2  3  1  0  0  0
  2 14  1  0  0  0
  2 28  1  0  0  0
  2 29  1  0  0  0
  3  4  1  0  0  0
  3 30  1  0  0  0
  3 31  1  0  0  0
  4  5  1  0  0  0
  4  7  1  0  0  0
  4 11  1  0  0  0
  5  6  1  0  0  0
  5 32  1  0  0  0
  5 33  1  0  0  0
  6 20  1  0  0  0
  6 34  1  0  0  0
  6 35  1  0  0  0
  7 13  2  0  0  0
  8 25  1  0  0  0
  8 26  2  0  0  0
  8 36  1  0  0  0
  9 24  1  0  0  0
  9 25  2  0  0  0
  9 37  1  0  0  0
 10 23  1  0  0  0
 10 24  2  0  0  0
 10 38  1  0  0  0
 11 12  1  0  0  0
 11 15  2  0  0  0
 12 18  2  0  0  0
 12 39  1  0  0  0
 14 15  1  0  0  0
 14 40  1  0  0  0
 15 16  1  0  0  0
 16 17  2  0  0  0
 16 41  1  0  0  0
 17 18  1  0  0  0
 17 42  1  0  0  0
 18 19  1  0  0  0
 20 43  1  0  0  0
 20 44  1  0  0  0
 21 22  1  0  0  0
 21 27  2  0  0  0
 22 23  2  0  0  0
 22 25  1  0  0  0
 23 45  1  0  0  0
 24 46  1  0  0  0
 26 27  1  0  0  0
 27 47  1  0  0  0
M  END
> <s_m_entry_id>
1442

> <s_m_entry_name>
_ligand

> <s_user_Compound_ID>
ALP-POS-e0fe77e5-13

> <s_user_Monomer-Dimer>
Dimer

> <s_user_xcode>
Mpro-P0950

$$$$
