7GKN_ligand
                    3D
 Schrodinger Suite 2021-2.
 43 46  0  0  1  0            999 V2000
    6.9891   -1.9060   17.8498 N   0  0  0  0  0  0
    7.1763   -2.1023   25.8557 C   0  0  0  0  0  0
    6.1096   -2.3315   26.7107 C   0  0  0  0  0  0
    4.8871   -1.7403   26.4420 C   0  0  0  0  0  0
    4.7564   -0.9350   25.3301 C   0  0  0  0  0  0
    5.7959   -0.7474   24.4385 C   0  0  0  0  0  0
    7.8360   -1.8634   22.2976 C   0  0  0  0  0  0
    7.9604   -2.6159   17.2919 C   0  0  0  0  0  0
   10.1788   -3.7452   17.3295 C   0  0  0  0  0  0
   11.4752   -3.6303   19.2964 C   0  0  0  0  0  0
   12.6317   -3.9379   19.9363 F   0  0  0  0  0  0
   11.3160   -4.0719   18.0046 C   0  0  0  0  0  0
   10.5519   -2.8815   19.9552 C   0  0  0  0  0  0
    9.3575   -2.5156   19.2818 C   0  0  0  0  0  0
    9.1682   -2.9645   17.9433 C   0  0  0  0  0  0
    7.1788   -1.4808   19.1064 C   0  0  0  0  0  0
    8.3163   -1.7340   19.8791 C   0  0  0  0  0  0
    8.4553   -1.3161   21.2233 N   0  0  0  0  0  0
    7.0808   -2.8237   22.2227 O   0  0  0  0  0  0
    8.1704   -1.2517   23.6961 C   0  0  1  0  0  0
    8.6823    0.0650   23.4803 O   0  0  0  0  0  0
    7.7402    1.1453   23.4192 C   0  0  0  0  0  0
    7.0362   -1.3293   24.7000 C   0  0  0  0  0  0
    3.2778   -0.0461   25.0977 Cl  0  0  0  0  0  0
    8.3804   -2.6362   26.2445 O   0  0  0  0  0  0
    9.2104   -3.0568   25.1468 C   0  0  0  0  0  0
    9.4665   -1.9448   24.1509 C   0  0  0  0  0  0
    6.2375   -2.9655   27.5757 H   0  0  0  0  0  0
    4.0480   -1.9117   27.1000 H   0  0  0  0  0  0
    5.6436   -0.1546   23.5486 H   0  0  0  0  0  0
    7.8572   -2.9674   16.2759 H   0  0  0  0  0  0
   10.0385   -4.0820   16.3129 H   0  0  0  0  0  0
   12.0765   -4.6698   17.5240 H   0  0  0  0  0  0
   10.7334   -2.5746   20.9748 H   0  0  0  0  0  0
    6.4177   -0.8931   19.5983 H   0  0  0  0  0  0
    9.0838   -0.5349   21.3463 H   0  0  0  0  0  0
    8.2714    2.0823   23.2514 H   0  0  0  0  0  0
    7.0413    0.9728   22.6006 H   0  0  0  0  0  0
    7.1911    1.2030   24.3590 H   0  0  0  0  0  0
    8.7392   -3.8978   24.6377 H   0  0  0  0  0  0
   10.1617   -3.4244   25.5320 H   0  0  0  0  0  0
   10.1351   -1.2073   24.5952 H   0  0  0  0  0  0
    9.9853   -2.3493   23.2817 H   0  0  0  0  0  0
  1  8  2  0  0  0
  1 16  1  0  0  0
  2  3  1  0  0  0
  2 23  2  0  0  0
  2 25  1  0  0  0
  3  4  2  0  0  0
  3 28  1  0  0  0
  4  5  1  0  0  0
  4 29  1  0  0  0
  5  6  2  0  0  0
  5 24  1  0  0  0
  6 23  1  0  0  0
  6 30  1  0  0  0
  7 18  1  0  0  0
  7 19  2  0  0  0
  7 20  1  0  0  0
  8 15  1  0  0  0
  8 31  1  0  0  0
  9 12  1  0  0  0
  9 15  2  0  0  0
  9 32  1  0  0  0
 10 11  1  0  0  0
 10 12  2  0  0  0
 10 13  1  0  0  0
 12 33  1  0  0  0
 13 14  2  0  0  0
 13 34  1  0  0  0
 14 15  1  0  0  0
 14 17  1  0  0  0
 16 17  2  0  0  0
 16 35  1  0  0  0
 17 18  1  0  0  0
 18 36  1  0  0  0
 20 21  1  0  0  0
 20 23  1  0  0  0
 20 27  1  0  0  0
 21 22  1  0  0  0
 22 37  1  0  0  0
 22 38  1  0  0  0
 22 39  1  0  0  0
 25 26  1  0  0  0
 26 27  1  0  0  0
 26 40  1  0  0  0
 26 41  1  0  0  0
 27 42  1  0  0  0
 27 43  1  0  0  0
M  END
> <s_m_entry_id>
1567

> <s_m_entry_name>
115_ligand

> <s_pdb_PDB_TITLE>
GROUP DEPOSITION SARS-COV-2 MAIN PROTEASE IN COMPLEX WITH INHIBITORS FROM THE COVID MOONSHOT -- CRYSTAL STRUCTURE OF SARS-COV-2 MAIN PROTEASE IN COMPLEX WITH EDJ-MED-611D11E7-4 (MPRO-P0978)

> <s_pdb_PDB_ID>
7GKN

> <s_m_Source_File>
7gkn.pdb.gz

> <s_user_Compound_ID>
EDJ-MED-611d11e7-4

> <s_user_Monomer-Dimer>
Dimer

> <s_user_xcode>
Mpro-P0978

$$$$
