7GKP_ligand
                    3D
 Schrodinger Suite 2021-2.
 50 54  0  0  1  0            999 V2000
    8.7955   -0.9405   20.5200 N   0  0  0  0  0  0
    9.6474   -2.1570   25.0591 C   0  0  0  0  0  0
   10.1336   -0.4960   23.2784 C   0  0  0  0  0  0
    8.6616   -0.3843   22.8828 C   0  0  1  0  0  0
    8.3123   -1.3264   21.7273 C   0  0  0  0  0  0
    8.5846   -1.5546   19.2672 C   0  0  0  0  0  0
    8.0603   -2.8925   16.9152 C   0  0  0  0  0  0
   11.4471   -4.2430   17.6832 C   0  0  0  0  0  0
   10.8307   -2.6801   19.3883 C   0  0  0  0  0  0
    7.7750   -0.7303   24.0636 C   0  0  0  0  0  0
   14.2673   -1.9818   24.9483 C   0  0  0  0  0  0
   13.7768   -0.6712   24.4414 C   0  0  0  0  0  0
   11.7604   -3.9297   23.9289 O   0  0  0  0  0  0
   11.8275   -2.5376   23.5906 S   0  0  0  0  0  0
   12.3725   -2.1497   22.3221 O   0  0  0  0  0  0
   12.7953   -1.7255   24.8524 C   0  0  0  0  0  0
   10.3478   -1.8580   23.8009 N   0  0  1  0  0  0
    8.2312   -1.6172   25.0532 C   0  0  0  0  0  0
    7.3775   -1.9593   26.1031 C   0  0  0  0  0  0
    6.1093   -1.4158   26.2004 C   0  0  0  0  0  0
    6.5003   -0.1730   24.1749 C   0  0  0  0  0  0
    5.6914   -0.5219   25.2396 C   0  0  0  0  0  0
    4.0970    0.1742   25.3548 Cl  0  0  0  0  0  0
    7.6275   -2.3370   21.8901 O   0  0  0  0  0  0
    9.5821   -2.4452   18.7554 C   0  0  0  0  0  0
   11.7326   -3.5574   18.8570 C   0  0  0  0  0  0
   10.2616   -4.0476   17.0335 C   0  0  0  0  0  0
    9.3001   -3.1427   17.5461 C   0  0  0  0  0  0
    7.1419   -2.0589   17.3821 N   0  0  0  0  0  0
    7.4111   -1.4160   18.5263 C   0  0  0  0  0  0
    9.3827   -0.1216   20.4494 H   0  0  0  0  0  0
   10.1981   -1.7215   25.8932 H   0  0  0  0  0  0
    9.6239   -3.2358   25.2134 H   0  0  0  0  0  0
   10.3555    0.2314   24.0597 H   0  0  0  0  0  0
   10.7584   -0.3428   22.3984 H   0  0  0  0  0  0
    8.4557    0.6414   22.5761 H   0  0  0  0  0  0
    7.8128   -3.3958   15.9920 H   0  0  0  0  0  0
   12.1660   -4.9388   17.2756 H   0  0  0  0  0  0
   11.0785   -2.1618   20.3030 H   0  0  0  0  0  0
   14.4221   -1.7165   25.9943 H   0  0  0  0  0  0
   14.4173   -2.4914   23.9962 H   0  0  0  0  0  0
   13.8121   -0.8753   23.3711 H   0  0  0  0  0  0
   13.8169   -0.1004   25.3694 H   0  0  0  0  0  0
   12.2843   -1.5506   25.7993 H   0  0  0  0  0  0
    7.7036   -2.6599   26.8577 H   0  0  0  0  0  0
    5.4640   -1.6939   27.0206 H   0  0  0  0  0  0
    6.1501    0.5274   23.4310 H   0  0  0  0  0  0
   12.6759   -3.7155   19.3591 H   0  0  0  0  0  0
   10.0509   -4.5855   16.1207 H   0  0  0  0  0  0
    6.6332   -0.7482   18.8665 H   0  0  0  0  0  0
  1  5  1  0  0  0
  1  6  1  0  0  0
  1 31  1  0  0  0
  2 17  1  0  0  0
  2 18  1  0  0  0
  2 32  1  0  0  0
  2 33  1  0  0  0
  3  4  1  0  0  0
  3 17  1  0  0  0
  3 34  1  0  0  0
  3 35  1  0  0  0
  4  5  1  0  0  0
  4 10  1  0  0  0
  4 36  1  0  0  0
  5 24  2  0  0  0
  6 25  1  0  0  0
  6 30  2  0  0  0
  7 28  1  0  0  0
  7 29  2  0  0  0
  7 37  1  0  0  0
  8 26  1  0  0  0
  8 27  2  0  0  0
  8 38  1  0  0  0
  9 25  1  0  0  0
  9 26  2  0  0  0
  9 39  1  0  0  0
 10 18  1  0  0  0
 10 21  2  0  0  0
 11 12  1  0  0  0
 11 16  1  0  0  0
 11 40  1  0  0  0
 11 41  1  0  0  0
 12 16  1  0  0  0
 12 42  1  0  0  0
 12 43  1  0  0  0
 13 14  2  0  0  0
 14 15  2  0  0  0
 14 16  1  0  0  0
 14 17  1  0  0  0
 16 44  1  0  0  0
 18 19  2  0  0  0
 19 20  1  0  0  0
 19 45  1  0  0  0
 20 22  2  0  0  0
 20 46  1  0  0  0
 21 22  1  0  0  0
 21 47  1  0  0  0
 22 23  1  0  0  0
 25 28  2  0  0  0
 26 48  1  0  0  0
 27 28  1  0  0  0
 27 49  1  0  0  0
 29 30  1  0  0  0
 30 50  1  0  0  0
M  END
> <s_m_entry_id>
1569

> <s_m_entry_name>
119_ligand

> <s_pdb_PDB_TITLE>
GROUP DEPOSITION SARS-COV-2 MAIN PROTEASE IN COMPLEX WITH INHIBITORS FROM THE COVID MOONSHOT -- CRYSTAL STRUCTURE OF SARS-COV-2 MAIN PROTEASE IN COMPLEX WITH MAT-POS-4223BC15-3 (MPRO-P1007)

> <s_pdb_PDB_ID>
7GKP

> <s_m_Source_File>
7gkp.pdb.gz

> <s_user_Compound_ID>
MAT-POS-4223bc15-3

> <s_user_Monomer-Dimer>
Dimer

> <s_user_xcode>
Mpro-P1007

$$$$
