7GKQ_ligand
                    3D
 Schrodinger Suite 2021-2.
 50 53  0  0  1  0            999 V2000
   10.0067   -2.3922   23.9139 N   0  0  0  0  0  0
    7.0721   -2.0592   17.4132 N   0  0  0  0  0  0
    8.5345   -0.6572   23.0553 C   0  0  1  0  0  0
    8.1302   -1.4975   21.8410 C   0  0  0  0  0  0
    8.4278   -1.6121   19.3760 C   0  0  0  0  0  0
    7.2903   -1.4478   18.5856 C   0  0  0  0  0  0
    8.0062   -2.8907   16.9720 C   0  0  0  0  0  0
   10.1921   -4.0705   17.1685 C   0  0  0  0  0  0
   10.6507   -2.7673   19.5864 C   0  0  0  0  0  0
    7.5976   -0.9479   24.2142 C   0  0  0  0  0  0
    5.5253   -0.5779   25.3674 C   0  0  0  0  0  0
    7.9442   -1.9105   25.1759 C   0  0  0  0  0  0
    9.3090   -2.5581   25.1922 C   0  0  0  0  0  0
    3.9942    0.2398   25.4695 Cl  0  0  0  0  0  0
    6.3840   -0.2699   24.3301 C   0  0  0  0  0  0
    5.8362   -1.5397   26.3022 C   0  0  0  0  0  0
    7.0436   -2.2034   26.2010 C   0  0  0  0  0  0
   10.9891   -3.2413   23.5038 C   0  0  0  0  0  0
   12.0750   -2.8425   23.1194 O   0  0  0  0  0  0
   10.6924   -4.5646   23.5621 N   0  0  0  0  0  0
   11.3797   -5.4684   24.4872 C   0  0  0  0  0  0
    9.6725   -5.1752   22.7143 C   0  0  0  0  0  0
    9.9723   -1.0081   23.4352 C   0  0  0  0  0  0
    7.4873   -2.5421   21.9526 O   0  0  0  0  0  0
    8.5836   -1.0272   20.6521 N   0  0  0  0  0  0
    9.4432   -2.4968   18.8926 C   0  0  0  0  0  0
   11.5692   -3.6462   19.0838 C   0  0  0  0  0  0
   11.3403   -4.2981   17.8756 C   0  0  0  0  0  0
    9.2156   -3.1632   17.6539 C   0  0  0  0  0  0
    8.4757    0.4006   22.7991 H   0  0  0  0  0  0
    6.5530   -0.7671   18.9851 H   0  0  0  0  0  0
    7.8679   -3.4103   16.0354 H   0  0  0  0  0  0
   10.0234   -4.5832   16.2331 H   0  0  0  0  0  0
   10.8552   -2.2758   20.5261 H   0  0  0  0  0  0
    9.9079   -2.1217   25.9915 H   0  0  0  0  0  0
    9.2037   -3.6204   25.4127 H   0  0  0  0  0  0
    6.1199    0.4914   23.6111 H   0  0  0  0  0  0
    5.1410   -1.7643   27.0977 H   0  0  0  0  0  0
    7.2855   -2.9603   26.9325 H   0  0  0  0  0  0
   10.9881   -6.4785   24.3674 H   0  0  0  0  0  0
   12.4483   -5.4657   24.2720 H   0  0  0  0  0  0
   11.2151   -5.1346   25.5117 H   0  0  0  0  0  0
    9.6074   -6.2409   22.9335 H   0  0  0  0  0  0
    8.7084   -4.7052   22.9090 H   0  0  0  0  0  0
    9.9391   -5.0358   21.6666 H   0  0  0  0  0  0
   10.6133   -0.9109   22.5590 H   0  0  0  0  0  0
   10.3113   -0.3413   24.2281 H   0  0  0  0  0  0
    9.1002   -0.1600   20.6159 H   0  0  0  0  0  0
   12.4832   -3.8405   19.6253 H   0  0  0  0  0  0
   12.0794   -4.9889   17.4976 H   0  0  0  0  0  0
  1 13  1  0  0  0
  1 18  1  0  0  0
  1 23  1  0  0  0
  2  6  1  0  0  0
  2  7  2  0  0  0
  3  4  1  0  0  0
  3 10  1  0  0  0
  3 23  1  0  0  0
  3 30  1  0  0  0
  4 24  2  0  0  0
  4 25  1  0  0  0
  5  6  2  0  0  0
  5 25  1  0  0  0
  5 26  1  0  0  0
  6 31  1  0  0  0
  7 29  1  0  0  0
  7 32  1  0  0  0
  8 28  1  0  0  0
  8 29  2  0  0  0
  8 33  1  0  0  0
  9 26  2  0  0  0
  9 27  1  0  0  0
  9 34  1  0  0  0
 10 12  1  0  0  0
 10 15  2  0  0  0
 11 14  1  0  0  0
 11 15  1  0  0  0
 11 16  2  0  0  0
 12 13  1  0  0  0
 12 17  2  0  0  0
 13 35  1  0  0  0
 13 36  1  0  0  0
 15 37  1  0  0  0
 16 17  1  0  0  0
 16 38  1  0  0  0
 17 39  1  0  0  0
 18 19  2  0  0  0
 18 20  1  0  0  0
 20 21  1  0  0  0
 20 22  1  0  0  0
 21 40  1  0  0  0
 21 41  1  0  0  0
 21 42  1  0  0  0
 22 43  1  0  0  0
 22 44  1  0  0  0
 22 45  1  0  0  0
 23 46  1  0  0  0
 23 47  1  0  0  0
 25 48  1  0  0  0
 26 29  1  0  0  0
 27 28  2  0  0  0
 27 49  1  0  0  0
 28 50  1  0  0  0
M  END
> <s_m_entry_id>
1571

> <s_m_entry_name>
121_ligand

> <s_pdb_PDB_TITLE>
GROUP DEPOSITION SARS-COV-2 MAIN PROTEASE IN COMPLEX WITH INHIBITORS FROM THE COVID MOONSHOT -- CRYSTAL STRUCTURE OF SARS-COV-2 MAIN PROTEASE IN COMPLEX WITH MAT-POS-4223BC15-18 (MPRO-P1010)

> <s_pdb_PDB_ID>
7GKQ

> <s_m_Source_File>
7gkq.pdb.gz

> <s_user_Compound_ID>
MAT-POS-4223bc15-18

> <s_user_Monomer-Dimer>
Dimer

> <s_user_xcode>
Mpro-P1010

$$$$
