7GKR_ligand
                    3D
 Schrodinger Suite 2021-2.
 51 54  0  0  1  0            999 V2000
   10.0578   -2.5566   24.2677 N   0  0  2  0  0  0
    7.0520   -1.8846   17.5630 N   0  0  0  0  0  0
    8.2615   -1.5886   21.9751 C   0  0  0  0  0  0
    8.4892   -1.5620   19.4970 C   0  0  0  0  0  0
    7.3197   -1.3500   18.7634 C   0  0  0  0  0  0
    7.9616   -2.6902   17.0330 C   0  0  0  0  0  0
    9.1981   -3.0052   17.6479 C   0  0  0  0  0  0
   11.3424   -4.1206   17.6922 C   0  0  0  0  0  0
    9.4850   -2.4075   18.9099 C   0  0  0  0  0  0
    6.4683   -0.3577   24.3310 C   0  0  0  0  0  0
    5.7633   -1.5559   26.2955 C   0  0  0  0  0  0
    9.3173   -2.5927   25.5333 C   0  0  0  0  0  0
    4.0126    0.2234   25.2880 Cl  0  0  0  0  0  0
    5.5302   -0.6281   25.3088 C   0  0  0  0  0  0
    6.9830   -2.2021   26.3312 C   0  0  0  0  0  0
    7.9626   -1.9448   25.3737 C   0  0  0  0  0  0
   11.2791   -3.5547   24.0092 S   0  0  0  0  0  0
   11.8103   -3.2919   22.7175 O   0  0  0  0  0  0
   12.1108   -3.5434   25.1622 O   0  0  0  0  0  0
   10.4816   -4.9401   23.9665 N   0  0  0  0  0  0
    9.9852   -5.4188   22.6721 C   0  0  0  0  0  0
   10.8803   -5.9912   24.9092 C   0  0  0  0  0  0
    7.6902   -1.0309   24.3409 C   0  0  0  0  0  0
    8.6896   -0.8082   23.2186 C   0  0  1  0  0  0
   10.0996   -1.2229   23.6438 C   0  0  0  0  0  0
    7.5925   -2.6214   22.0476 O   0  0  0  0  0  0
    8.7015   -1.0638   20.8030 N   0  0  0  0  0  0
   10.7358   -2.6913   19.5158 C   0  0  0  0  0  0
   11.6358   -3.5215   18.9126 C   0  0  0  0  0  0
   10.1543   -3.8735   17.0654 C   0  0  0  0  0  0
    6.6005   -0.6978   19.2366 H   0  0  0  0  0  0
    7.7806   -3.1519   16.0735 H   0  0  0  0  0  0
   12.0568   -4.7874   17.2323 H   0  0  0  0  0  0
    6.2539    0.3719   23.5640 H   0  0  0  0  0  0
    4.9983   -1.7696   27.0273 H   0  0  0  0  0  0
    9.8840   -2.0650   26.3006 H   0  0  0  0  0  0
    9.1896   -3.6280   25.8497 H   0  0  0  0  0  0
    7.1909   -2.9208   27.1102 H   0  0  0  0  0  0
    9.4675   -6.3681   22.8094 H   0  0  0  0  0  0
    9.2949   -4.6862   22.2537 H   0  0  0  0  0  0
   10.8238   -5.5582   21.9899 H   0  0  0  0  0  0
   10.2514   -6.8694   24.7623 H   0  0  0  0  0  0
   11.9229   -6.2586   24.7365 H   0  0  0  0  0  0
   10.7633   -5.6278   25.9302 H   0  0  0  0  0  0
    8.7015    0.2537   22.9727 H   0  0  0  0  0  0
   10.7490   -1.2517   22.7688 H   0  0  0  0  0  0
   10.4906   -0.4995   24.3593 H   0  0  0  0  0  0
    9.2511   -0.2164   20.8039 H   0  0  0  0  0  0
   10.9874   -2.2482   20.4682 H   0  0  0  0  0  0
   12.5843   -3.7113   19.3932 H   0  0  0  0  0  0
    9.9467   -4.3470   16.1171 H   0  0  0  0  0  0
  1 12  1  0  0  0
  1 17  1  0  0  0
  1 25  1  0  0  0
  2  5  1  0  0  0
  2  6  2  0  0  0
  3 24  1  0  0  0
  3 26  2  0  0  0
  3 27  1  0  0  0
  4  5  2  0  0  0
  4  9  1  0  0  0
  4 27  1  0  0  0
  5 31  1  0  0  0
  6  7  1  0  0  0
  6 32  1  0  0  0
  7  9  1  0  0  0
  7 30  2  0  0  0
  8 29  2  0  0  0
  8 30  1  0  0  0
  8 33  1  0  0  0
  9 28  2  0  0  0
 10 14  1  0  0  0
 10 23  2  0  0  0
 10 34  1  0  0  0
 11 14  2  0  0  0
 11 15  1  0  0  0
 11 35  1  0  0  0
 12 16  1  0  0  0
 12 36  1  0  0  0
 12 37  1  0  0  0
 13 14  1  0  0  0
 15 16  2  0  0  0
 15 38  1  0  0  0
 16 23  1  0  0  0
 17 18  2  0  0  0
 17 19  2  0  0  0
 17 20  1  0  0  0
 20 21  1  0  0  0
 20 22  1  0  0  0
 21 39  1  0  0  0
 21 40  1  0  0  0
 21 41  1  0  0  0
 22 42  1  0  0  0
 22 43  1  0  0  0
 22 44  1  0  0  0
 23 24  1  0  0  0
 24 25  1  0  0  0
 24 45  1  0  0  0
 25 46  1  0  0  0
 25 47  1  0  0  0
 27 48  1  0  0  0
 28 29  1  0  0  0
 28 49  1  0  0  0
 29 50  1  0  0  0
 30 51  1  0  0  0
M  END
> <s_m_entry_id>
1573

> <s_m_entry_name>
123_ligand

> <s_pdb_PDB_TITLE>
GROUP DEPOSITION SARS-COV-2 MAIN PROTEASE IN COMPLEX WITH INHIBITORS FROM THE COVID MOONSHOT -- CRYSTAL STRUCTURE OF SARS-COV-2 MAIN PROTEASE IN COMPLEX WITH MAT-POS-4223BC15-2 (MPRO-P1015)

> <s_pdb_PDB_ID>
7GKR

> <s_m_Source_File>
7gkr.pdb.gz

> <s_user_Compound_ID>
MAT-POS-4223bc15-2

> <s_user_Monomer-Dimer>
Dimer

> <s_user_xcode>
Mpro-P1015

$$$$
