7GKS_ligand
                    3D
 Schrodinger Suite 2021-2.
 58 62  0  0  1  0            999 V2000
   10.1088   -2.1729   24.1999 N   0  0  3  0  0  0
    7.0756   -1.9291   17.4973 N   0  0  0  0  0  0
    9.9417   -4.9166   22.3312 C   0  0  0  0  0  0
    9.9291   -0.8333   23.6071 C   0  0  0  0  0  0
    8.4926   -0.5823   23.1578 C   0  0  1  0  0  0
    8.1399   -1.4294   21.9327 C   0  0  0  0  0  0
    8.4345   -1.5028   19.4670 C   0  0  0  0  0  0
    8.0213   -2.7346   17.0322 C   0  0  0  0  0  0
   11.4165   -4.0414   17.8531 C   0  0  0  0  0  0
   10.6990   -2.5884   19.6151 C   0  0  0  0  0  0
    7.5347   -0.8735   24.2953 C   0  0  0  0  0  0
    5.7049   -1.5520   26.2918 C   0  0  0  0  0  0
    6.9477   -2.1525   26.2519 C   0  0  0  0  0  0
    7.8751   -1.8305   25.2624 C   0  0  0  0  0  0
    3.8263    0.1502   25.3863 Cl  0  0  0  0  0  0
    5.3982   -0.5952   25.3547 C   0  0  0  0  0  0
    6.2951   -0.2358   24.3664 C   0  0  0  0  0  0
    9.2096   -2.5428   25.2996 C   0  0  0  0  0  0
   11.3421   -3.0569   23.7000 S   0  0  0  0  0  0
   12.2736   -3.1465   24.7689 O   0  0  0  0  0  0
   11.7408   -2.5672   22.4250 O   0  0  0  0  0  0
   10.6320   -4.4847   23.5652 N   0  0  2  0  0  0
   11.1255   -5.6793   24.2841 C   0  0  0  0  0  0
   11.0189   -6.8138   23.2672 C   0  0  0  0  0  0
   10.7841   -6.1113   21.9113 C   0  0  1  0  0  0
   10.1115   -6.9910   20.8648 C   0  0  0  0  0  0
    7.4964   -2.4757   22.0232 O   0  0  0  0  0  0
    8.5969   -0.9389   20.7527 N   0  0  0  0  0  0
    9.4615   -2.3612   18.9586 C   0  0  0  0  0  0
   11.6490   -3.4008   19.0655 C   0  0  0  0  0  0
   10.2400   -3.8611   17.1852 C   0  0  0  0  0  0
    9.2374   -3.0078   17.7086 C   0  0  0  0  0  0
    7.2897   -1.3426   18.6827 C   0  0  0  0  0  0
   10.0309   -4.1333   21.5784 H   0  0  0  0  0  0
    8.9376   -5.2576   22.5834 H   0  0  0  0  0  0
   10.6000   -0.7209   22.7555 H   0  0  0  0  0  0
   10.2196   -0.0738   24.3331 H   0  0  0  0  0  0
    8.3959    0.4693   22.8877 H   0  0  0  0  0  0
    7.8893   -3.2299   16.0815 H   0  0  0  0  0  0
   12.1707   -4.6891   17.4312 H   0  0  0  0  0  0
   10.9014   -2.1155   20.5648 H   0  0  0  0  0  0
    4.9918   -1.8366   27.0514 H   0  0  0  0  0  0
    7.2168   -2.8870   26.9966 H   0  0  0  0  0  0
    6.0416    0.5334   23.6518 H   0  0  0  0  0  0
    9.7007   -2.3411   26.2516 H   0  0  0  0  0  0
    9.0449   -3.6202   25.2852 H   0  0  0  0  0  0
   10.4695   -5.8889   25.1290 H   0  0  0  0  0  0
   12.1715   -5.5324   24.5531 H   0  0  0  0  0  0
   10.1553   -7.4342   23.5070 H   0  0  0  0  0  0
   11.9625   -7.3585   23.2334 H   0  0  0  0  0  0
   11.7385   -5.7571   21.5216 H   0  0  0  0  0  0
   10.7686   -7.8233   20.6123 H   0  0  0  0  0  0
    9.1732   -7.3774   21.2628 H   0  0  0  0  0  0
    9.9108   -6.4026   19.9694 H   0  0  0  0  0  0
    9.1192   -0.0746   20.7334 H   0  0  0  0  0  0
   12.5875   -3.5438   19.5806 H   0  0  0  0  0  0
   10.0668   -4.3710   16.2491 H   0  0  0  0  0  0
    6.5428   -0.6852   19.1026 H   0  0  0  0  0  0
  1  4  1  0  0  0
  1 18  1  0  0  0
  1 19  1  0  0  0
  2  8  1  0  0  0
  2 33  2  0  0  0
  3 22  1  0  0  0
  3 25  1  0  0  0
  3 34  1  0  0  0
  3 35  1  0  0  0
  4  5  1  0  0  0
  4 36  1  0  0  0
  4 37  1  0  0  0
  5  6  1  0  0  0
  5 11  1  0  0  0
  5 38  1  0  0  0
  6 27  2  0  0  0
  6 28  1  0  0  0
  7 28  1  0  0  0
  7 29  2  0  0  0
  7 33  1  0  0  0
  8 32  2  0  0  0
  8 39  1  0  0  0
  9 30  1  0  0  0
  9 31  2  0  0  0
  9 40  1  0  0  0
 10 29  1  0  0  0
 10 30  2  0  0  0
 10 41  1  0  0  0
 11 14  1  0  0  0
 11 17  2  0  0  0
 12 13  1  0  0  0
 12 16  2  0  0  0
 12 42  1  0  0  0
 13 14  2  0  0  0
 13 43  1  0  0  0
 14 18  1  0  0  0
 15 16  1  0  0  0
 16 17  1  0  0  0
 17 44  1  0  0  0
 18 45  1  0  0  0
 18 46  1  0  0  0
 19 20  2  0  0  0
 19 21  2  0  0  0
 19 22  1  0  0  0
 22 23  1  0  0  0
 23 24  1  0  0  0
 23 47  1  0  0  0
 23 48  1  0  0  0
 24 25  1  0  0  0
 24 49  1  0  0  0
 24 50  1  0  0  0
 25 26  1  0  0  0
 25 51  1  0  0  0
 26 52  1  0  0  0
 26 53  1  0  0  0
 26 54  1  0  0  0
 28 55  1  0  0  0
 29 32  1  0  0  0
 30 56  1  0  0  0
 31 32  1  0  0  0
 31 57  1  0  0  0
 33 58  1  0  0  0
M  END
> <s_m_entry_id>
1575

> <s_m_entry_name>
125_ligand

> <s_pdb_PDB_TITLE>
GROUP DEPOSITION SARS-COV-2 MAIN PROTEASE IN COMPLEX WITH INHIBITORS FROM THE COVID MOONSHOT -- CRYSTAL STRUCTURE OF SARS-COV-2 MAIN PROTEASE IN COMPLEX WITH MAT-POS-4223BC15-11 (MPRO-P1062)

> <s_pdb_PDB_ID>
7GKS

> <s_m_Source_File>
7gks.pdb.gz

> <s_user_Compound_ID>
MAT-POS-4223bc15-11

> <s_user_Monomer-Dimer>
Dimer

> <s_user_xcode>
Mpro-P1062

$$$$
