7GKT_ligand
                    3D
 Schrodinger Suite 2021-2.
 50 53  0  0  1  0            999 V2000
    8.6745   -1.1767   20.9733 N   0  0  0  0  0  0
    9.7277   -2.3049   25.0915 C   0  0  0  0  0  0
    9.7315   -1.5649   23.7631 C   0  0  0  0  0  0
    8.3690   -0.9048   23.4238 C   0  0  2  0  0  0
    8.5425    0.6102   23.1782 C   0  0  0  0  0  0
    9.6984    2.1638   24.6805 C   0  0  0  0  0  0
   10.5176    3.7978   26.3067 C   0  0  0  0  0  0
    7.3631   -1.4146   18.8854 C   0  0  0  0  0  0
    9.2139   -3.1383   17.8278 C   0  0  0  0  0  0
   11.3348   -4.2976   17.9152 C   0  0  0  0  0  0
    9.4719   -2.5674   19.1087 C   0  0  0  0  0  0
    7.2773   -1.1518   24.4692 C   0  0  0  0  0  0
    6.1094   -0.3913   24.5111 C   0  0  0  0  0  0
    7.2538   -2.5536   22.0697 O   0  0  0  0  0  0
    8.0370   -1.6120   22.0936 C   0  0  0  0  0  0
    8.5124   -3.0265   25.3583 O   0  0  0  0  0  0
    8.6386    1.4020   24.3934 N   0  0  0  0  0  0
    9.5732    2.9871   25.9125 C   0  0  0  0  0  0
   10.7074    2.1823   23.9632 O   0  0  0  0  0  0
    7.4072   -2.2146   25.3601 C   0  0  0  0  0  0
    6.4096   -2.5252   26.2754 C   0  0  0  0  0  0
    5.2436   -1.7798   26.2867 C   0  0  0  0  0  0
    5.1039   -0.7352   25.3968 C   0  0  0  0  0  0
    3.5765    0.1031   25.3028 Cl  0  0  0  0  0  0
    8.4939   -1.6754   19.6593 C   0  0  0  0  0  0
   10.6886   -2.9052   19.7567 C   0  0  0  0  0  0
   11.5927   -3.7430   19.1649 C   0  0  0  0  0  0
   10.1721   -4.0156   17.2572 C   0  0  0  0  0  0
    8.0115   -2.7745   17.1738 C   0  0  0  0  0  0
    7.1118   -1.9418   17.6781 N   0  0  0  0  0  0
    9.3498   -0.4283   21.0351 H   0  0  0  0  0  0
    9.9128   -1.5975   25.8998 H   0  0  0  0  0  0
   10.5716   -2.9942   25.1235 H   0  0  0  0  0  0
   10.0082   -2.2544   22.9655 H   0  0  0  0  0  0
   10.5099   -0.8020   23.7761 H   0  0  0  0  0  0
    7.7124    0.9756   22.5735 H   0  0  0  0  0  0
    9.4291    0.7779   22.5666 H   0  0  0  0  0  0
   10.3889    4.3793   27.2077 H   0  0  0  0  0  0
   11.4276    3.8869   25.7319 H   0  0  0  0  0  0
    6.6032   -0.7393   19.2500 H   0  0  0  0  0  0
   12.0573   -4.9573   17.4576 H   0  0  0  0  0  0
    5.9949    0.4590   23.8551 H   0  0  0  0  0  0
    7.8589    1.3593   25.0340 H   0  0  0  0  0  0
    8.6784    2.9259   26.5143 H   0  0  0  0  0  0
    6.5481   -3.3416   26.9688 H   0  0  0  0  0  0
    4.4566   -2.0189   26.9868 H   0  0  0  0  0  0
   10.9118   -2.4988   20.7322 H   0  0  0  0  0  0
   12.5149   -3.9730   19.6779 H   0  0  0  0  0  0
    9.9849   -4.4669   16.2941 H   0  0  0  0  0  0
    7.7811   -3.1827   16.2008 H   0  0  0  0  0  0
  1 15  1  0  0  0
  1 25  1  0  0  0
  1 31  1  0  0  0
  2  3  1  0  0  0
  2 16  1  0  0  0
  2 32  1  0  0  0
  2 33  1  0  0  0
  3  4  1  0  0  0
  3 34  1  0  0  0
  3 35  1  0  0  0
  4  5  1  0  0  0
  4 12  1  0  0  0
  4 15  1  0  0  0
  5 17  1  0  0  0
  5 36  1  0  0  0
  5 37  1  0  0  0
  6 17  1  0  0  0
  6 18  1  0  0  0
  6 19  2  0  0  0
  7 18  2  0  0  0
  7 38  1  0  0  0
  7 39  1  0  0  0
  8 25  2  0  0  0
  8 30  1  0  0  0
  8 40  1  0  0  0
  9 11  1  0  0  0
  9 28  2  0  0  0
  9 29  1  0  0  0
 10 27  2  0  0  0
 10 28  1  0  0  0
 10 41  1  0  0  0
 11 25  1  0  0  0
 11 26  2  0  0  0
 12 13  1  0  0  0
 12 20  2  0  0  0
 13 23  2  0  0  0
 13 42  1  0  0  0
 14 15  2  0  0  0
 16 20  1  0  0  0
 17 43  1  0  0  0
 18 44  1  0  0  0
 20 21  1  0  0  0
 21 22  2  0  0  0
 21 45  1  0  0  0
 22 23  1  0  0  0
 22 46  1  0  0  0
 23 24  1  0  0  0
 26 27  1  0  0  0
 26 47  1  0  0  0
 27 48  1  0  0  0
 28 49  1  0  0  0
 29 30  2  0  0  0
 29 50  1  0  0  0
M  END
> <s_m_entry_id>
1577

> <s_m_entry_name>
127_ligand

> <s_pdb_PDB_TITLE>
GROUP DEPOSITION SARS-COV-2 MAIN PROTEASE IN COMPLEX WITH INHIBITORS FROM THE COVID MOONSHOT -- CRYSTAL STRUCTURE OF SARS-COV-2 MAIN PROTEASE IN COMPLEX WITH MAT-POS-E6DD326D-8 (MPRO-P1073)

> <s_pdb_PDB_ID>
7GKT

> <s_m_Source_File>
7gkt.pdb.gz

> <s_user_Compound_ID>
MAT-POS-e6dd326d-8

> <s_user_Monomer-Dimer>
Dimer

> <s_user_xcode>
Mpro-P1073

$$$$
