7GKU_ligand
                    3D
 Schrodinger Suite 2021-2.
 52 56  0  0  1  0            999 V2000
    9.7021   -6.9278   23.9275 N   0  0  0  0  0  0
    8.5600   -0.9978   20.8497 N   0  0  0  0  0  0
   10.6814   -3.4074   23.6431 C   0  0  0  0  0  0
    9.9141   -1.0621   23.7032 C   0  0  0  0  0  0
    8.5061   -0.6707   23.2532 C   0  0  1  0  0  0
    8.1387   -1.5122   22.0304 C   0  0  0  0  0  0
    8.3298   -1.5071   19.5519 C   0  0  0  0  0  0
    7.7288   -2.7038   17.1411 C   0  0  0  0  0  0
   11.1426   -4.0864   17.7147 C   0  0  0  0  0  0
   10.5741   -2.6376   19.5364 C   0  0  0  0  0  0
    7.4893   -0.9807   24.3388 C   0  0  0  0  0  0
    5.5789   -1.6228   26.2763 C   0  0  0  0  0  0
    6.8052   -2.2582   26.2705 C   0  0  0  0  0  0
    7.7779   -1.9420   25.3213 C   0  0  0  0  0  0
    3.8105    0.2046   25.3803 Cl  0  0  0  0  0  0
    5.3261   -0.6537   25.3329 C   0  0  0  0  0  0
    6.2552   -0.3280   24.3605 C   0  0  0  0  0  0
    9.1299   -2.6123   25.4094 C   0  0  0  0  0  0
    9.9038   -2.4479   24.1743 N   0  0  0  0  0  0
   11.5499   -3.1663   22.8127 O   0  0  0  0  0  0
   10.4482   -4.8012   24.0787 C   0  0  0  0  0  0
   10.6542   -5.4173   25.3151 C   0  0  0  0  0  0
   10.1688   -6.7082   25.1524 C   0  0  0  0  0  0
    9.8981   -5.7482   23.2689 N   0  0  0  0  0  0
    9.5753   -5.6781   21.8476 C   0  0  0  0  0  0
    7.5099   -2.5685   22.1257 O   0  0  0  0  0  0
    9.2958   -2.3901   18.9736 C   0  0  0  0  0  0
   11.4720   -3.4567   18.9108 C   0  0  0  0  0  0
    9.9221   -3.8860   17.1357 C   0  0  0  0  0  0
    8.9730   -3.0201   17.7375 C   0  0  0  0  0  0
    6.8484   -1.8585   17.6595 N   0  0  0  0  0  0
    7.1535   -1.2860   18.8339 C   0  0  0  0  0  0
    9.1083   -0.1496   20.8353 H   0  0  0  0  0  0
   10.2321   -0.4055   24.5132 H   0  0  0  0  0  0
   10.6026   -0.9694   22.8632 H   0  0  0  0  0  0
    8.4742    0.3895   23.0018 H   0  0  0  0  0  0
    7.4469   -3.1618   16.2044 H   0  0  0  0  0  0
   11.8552   -4.7411   17.2350 H   0  0  0  0  0  0
   10.8504   -2.1759   20.4729 H   0  0  0  0  0  0
    4.8361   -1.8891   27.0137 H   0  0  0  0  0  0
    7.0249   -3.0147   27.0094 H   0  0  0  0  0  0
    6.0301    0.4263   23.6210 H   0  0  0  0  0  0
    8.9954   -3.6745   25.6143 H   0  0  0  0  0  0
    9.6888   -2.1929   26.2461 H   0  0  0  0  0  0
   11.1082   -4.8650   26.1247 H   0  0  0  0  0  0
   10.1410   -7.4965   25.8902 H   0  0  0  0  0  0
    9.7872   -4.6757   21.4755 H   0  0  0  0  0  0
   10.1786   -6.4032   21.3012 H   0  0  0  0  0  0
    8.5185   -5.9029   21.7030 H   0  0  0  0  0  0
   12.4447   -3.6132   19.3535 H   0  0  0  0  0  0
    9.6732   -4.3885   16.2125 H   0  0  0  0  0  0
    6.4051   -0.6088   19.2187 H   0  0  0  0  0  0
  1 23  2  0  0  0
  1 24  1  0  0  0
  2  6  1  0  0  0
  2  7  1  0  0  0
  2 33  1  0  0  0
  3 19  1  0  0  0
  3 20  2  0  0  0
  3 21  1  0  0  0
  4  5  1  0  0  0
  4 19  1  0  0  0
  4 34  1  0  0  0
  4 35  1  0  0  0
  5  6  1  0  0  0
  5 11  1  0  0  0
  5 36  1  0  0  0
  6 26  2  0  0  0
  7 27  1  0  0  0
  7 32  2  0  0  0
  8 30  1  0  0  0
  8 31  2  0  0  0
  8 37  1  0  0  0
  9 28  1  0  0  0
  9 29  2  0  0  0
  9 38  1  0  0  0
 10 27  1  0  0  0
 10 28  2  0  0  0
 10 39  1  0  0  0
 11 14  1  0  0  0
 11 17  2  0  0  0
 12 13  1  0  0  0
 12 16  2  0  0  0
 12 40  1  0  0  0
 13 14  2  0  0  0
 13 41  1  0  0  0
 14 18  1  0  0  0
 15 16  1  0  0  0
 16 17  1  0  0  0
 17 42  1  0  0  0
 18 19  1  0  0  0
 18 43  1  0  0  0
 18 44  1  0  0  0
 21 22  2  0  0  0
 21 24  1  0  0  0
 22 23  1  0  0  0
 22 45  1  0  0  0
 23 46  1  0  0  0
 24 25  1  0  0  0
 25 47  1  0  0  0
 25 48  1  0  0  0
 25 49  1  0  0  0
 27 30  2  0  0  0
 28 50  1  0  0  0
 29 30  1  0  0  0
 29 51  1  0  0  0
 31 32  1  0  0  0
 32 52  1  0  0  0
M  END
> <s_m_entry_id>
1579

> <s_m_entry_name>
129_ligand

> <s_pdb_PDB_TITLE>
GROUP DEPOSITION SARS-COV-2 MAIN PROTEASE IN COMPLEX WITH INHIBITORS FROM THE COVID MOONSHOT -- CRYSTAL STRUCTURE OF SARS-COV-2 MAIN PROTEASE IN COMPLEX WITH MAT-POS-4223BC15-40 (MPRO-P1079)

> <s_pdb_PDB_ID>
7GKU

> <s_m_Source_File>
7gku.pdb.gz

> <s_user_Compound_ID>
MAT-POS-4223bc15-40

> <s_user_Monomer-Dimer>
Dimer

> <s_user_xcode>
Mpro-P1079

$$$$
