7GKV_ligand
                    3D
 Schrodinger Suite 2021-2.
 50 53  0  0  1  0            999 V2000
   10.0108   -2.3918   23.7795 N   0  0  2  0  0  0
    7.0177   -1.8730   17.3274 N   0  0  0  0  0  0
    8.5530   -0.5863   23.0399 C   0  0  1  0  0  0
    8.1140   -1.4032   21.8231 C   0  0  0  0  0  0
    8.3095   -1.4410   19.3417 C   0  0  0  0  0  0
    7.2007   -1.2680   18.5087 C   0  0  0  0  0  0
    7.9559   -2.7167   16.9195 C   0  0  0  0  0  0
   10.1363   -3.8943   17.1746 C   0  0  0  0  0  0
   10.5431   -2.5708   19.5890 C   0  0  0  0  0  0
    7.6411   -0.9016   24.2147 C   0  0  0  0  0  0
    5.5263   -0.6642   25.3330 C   0  0  0  0  0  0
    8.0157   -1.8765   25.1583 C   0  0  0  0  0  0
    9.3719   -2.5477   25.0956 C   0  0  0  0  0  0
    3.9511    0.0812   25.4247 Cl  0  0  0  0  0  0
    6.3956   -0.2812   24.3269 C   0  0  0  0  0  0
    5.8638   -1.6442   26.2445 C   0  0  0  0  0  0
    7.1131   -2.2339   26.1631 C   0  0  0  0  0  0
   11.3372   -2.9972   23.7026 C   0  0  0  0  0  0
   11.3569   -4.3872   23.0879 C   0  0  0  0  0  0
   12.3156   -5.1339   23.2850 O   0  0  0  0  0  0
   10.3196   -4.7317   22.3271 N   0  0  0  0  0  0
   10.2858   -5.9603   21.5550 C   0  0  0  0  0  0
    9.9919   -0.9899   23.3623 C   0  0  0  0  0  0
    7.5868   -2.5117   21.9369 O   0  0  0  0  0  0
    8.4395   -0.8551   20.6237 N   0  0  0  0  0  0
    9.3344   -2.3336   18.8871 C   0  0  0  0  0  0
   11.4896   -3.4248   19.0934 C   0  0  0  0  0  0
   11.2835   -4.0902   17.8901 C   0  0  0  0  0  0
    9.1381   -3.0033   17.6441 C   0  0  0  0  0  0
    8.5079    0.4782   22.8085 H   0  0  0  0  0  0
    6.4556   -0.5832   18.8853 H   0  0  0  0  0  0
    7.8430   -3.2355   15.9795 H   0  0  0  0  0  0
    9.9842   -4.4197   16.2438 H   0  0  0  0  0  0
   10.7275   -2.0740   20.5297 H   0  0  0  0  0  0
   10.0201   -2.1284   25.8648 H   0  0  0  0  0  0
    9.2623   -3.6083   25.3229 H   0  0  0  0  0  0
    6.1137    0.4948   23.6298 H   0  0  0  0  0  0
    5.1574   -1.9401   27.0063 H   0  0  0  0  0  0
    7.3855   -2.9821   26.8935 H   0  0  0  0  0  0
   11.7743   -3.0381   24.7004 H   0  0  0  0  0  0
   12.0006   -2.3423   23.1370 H   0  0  0  0  0  0
    9.5119   -4.1278   22.2700 H   0  0  0  0  0  0
    9.3410   -6.0246   21.0152 H   0  0  0  0  0  0
   11.1115   -5.9652   20.8434 H   0  0  0  0  0  0
   10.3796   -6.8148   22.2261 H   0  0  0  0  0  0
   10.6111   -0.8665   22.4736 H   0  0  0  0  0  0
   10.3716   -0.3660   24.1709 H   0  0  0  0  0  0
    8.8236    0.0781   20.5818 H   0  0  0  0  0  0
   12.4082   -3.5881   19.6376 H   0  0  0  0  0  0
   12.0405   -4.7669   17.5227 H   0  0  0  0  0  0
  1 13  1  0  0  0
  1 18  1  0  0  0
  1 23  1  0  0  0
  2  6  1  0  0  0
  2  7  2  0  0  0
  3  4  1  0  0  0
  3 10  1  0  0  0
  3 23  1  0  0  0
  3 30  1  0  0  0
  4 24  2  0  0  0
  4 25  1  0  0  0
  5  6  2  0  0  0
  5 25  1  0  0  0
  5 26  1  0  0  0
  6 31  1  0  0  0
  7 29  1  0  0  0
  7 32  1  0  0  0
  8 28  1  0  0  0
  8 29  2  0  0  0
  8 33  1  0  0  0
  9 26  2  0  0  0
  9 27  1  0  0  0
  9 34  1  0  0  0
 10 12  1  0  0  0
 10 15  2  0  0  0
 11 14  1  0  0  0
 11 15  1  0  0  0
 11 16  2  0  0  0
 12 13  1  0  0  0
 12 17  2  0  0  0
 13 35  1  0  0  0
 13 36  1  0  0  0
 15 37  1  0  0  0
 16 17  1  0  0  0
 16 38  1  0  0  0
 17 39  1  0  0  0
 18 19  1  0  0  0
 18 40  1  0  0  0
 18 41  1  0  0  0
 19 20  2  0  0  0
 19 21  1  0  0  0
 21 22  1  0  0  0
 21 42  1  0  0  0
 22 43  1  0  0  0
 22 44  1  0  0  0
 22 45  1  0  0  0
 23 46  1  0  0  0
 23 47  1  0  0  0
 25 48  1  0  0  0
 26 29  1  0  0  0
 27 28  2  0  0  0
 27 49  1  0  0  0
 28 50  1  0  0  0
M  END
> <s_m_entry_id>
1581

> <s_m_entry_name>
131_ligand

> <s_pdb_PDB_TITLE>
GROUP DEPOSITION SARS-COV-2 MAIN PROTEASE IN COMPLEX WITH INHIBITORS FROM THE COVID MOONSHOT -- CRYSTAL STRUCTURE OF SARS-COV-2 MAIN PROTEASE IN COMPLEX WITH MAT-POS-4223BC15-23 (MPRO-P1090)

> <s_pdb_PDB_ID>
7GKV

> <s_m_Source_File>
7gkv.pdb.gz

> <s_user_Compound_ID>
MAT-POS-4223bc15-23

> <s_user_Monomer-Dimer>
Dimer

> <s_user_xcode>
Mpro-P1090

$$$$
