7GKW_ligand
                    3D
 Schrodinger Suite 2021-2.
 50 53  0  0  1  0            999 V2000
    8.5641   -1.1489   21.0609 N   0  0  0  0  0  0
    9.6696   -1.6558   24.0372 C   0  0  0  0  0  0
    9.4491   -3.0445   24.5904 C   0  0  0  0  0  0
    7.3799   -2.2555   25.5500 C   0  0  0  0  0  0
    6.3691   -2.4945   26.4651 C   0  0  0  0  0  0
    5.1964   -1.7633   26.3894 C   0  0  0  0  0  0
    6.0772   -0.5223   24.5167 C   0  0  0  0  0  0
    8.3771   -1.6437   19.7494 C   0  0  0  0  0  0
    7.8983   -2.7659   17.2756 C   0  0  0  0  0  0
   10.0991   -3.9327   17.3376 C   0  0  0  0  0  0
   10.6058   -2.8096   19.8320 C   0  0  0  0  0  0
    9.3769   -2.5014   19.1895 C   0  0  0  0  0  0
    7.2781   -2.6661   22.1270 O   0  0  0  0  0  0
    8.0080   -1.6808   22.1765 C   0  0  0  0  0  0
    8.3543   -1.0209   23.5290 C   0  0  1  0  0  0
    7.2516   -1.2736   24.5550 C   0  0  0  0  0  0
    5.0662   -0.7919   25.4202 C   0  0  0  0  0  0
    3.5488    0.0526   25.2643 Cl  0  0  0  0  0  0
    8.4645   -3.0952   25.6515 O   0  0  0  0  0  0
    8.6413    0.4931   23.4398 C   0  0  0  0  0  0
    8.8899    1.0947   24.7404 N   0  0  0  0  0  0
    9.4455    2.3031   24.8988 C   0  0  0  0  0  0
    9.7877    3.0270   23.9890 O   0  0  0  0  0  0
    9.5610    2.6109   26.2026 O   0  0  0  0  0  0
    9.9674    3.9684   26.4991 C   0  0  0  0  0  0
   11.5225   -3.6313   19.2399 C   0  0  0  0  0  0
   11.2695   -4.1914   17.9933 C   0  0  0  0  0  0
    9.1232   -3.0808   17.9118 C   0  0  0  0  0  0
    6.9702   -1.9735   17.7954 N   0  0  0  0  0  0
    7.2195   -1.4316   18.9971 C   0  0  0  0  0  0
    9.1491   -0.3405   21.2170 H   0  0  0  0  0  0
   10.3897   -1.7010   23.2202 H   0  0  0  0  0  0
   10.1029   -1.0219   24.8108 H   0  0  0  0  0  0
   10.3957   -3.4427   24.9559 H   0  0  0  0  0  0
    9.1458   -3.7114   23.7833 H   0  0  0  0  0  0
    6.4994   -3.2462   27.2295 H   0  0  0  0  0  0
    4.3939   -1.9561   27.0859 H   0  0  0  0  0  0
    5.9626    0.2636   23.7848 H   0  0  0  0  0  0
    7.6723   -3.1800   16.3041 H   0  0  0  0  0  0
    9.9108   -4.3791   16.3723 H   0  0  0  0  0  0
   10.8268   -2.3923   20.8033 H   0  0  0  0  0  0
    7.7982    0.9942   22.9641 H   0  0  0  0  0  0
    9.5020    0.6611   22.7924 H   0  0  0  0  0  0
    8.6207    0.5527   25.5491 H   0  0  0  0  0  0
   10.0274    4.1026   27.5791 H   0  0  0  0  0  0
   10.9439    4.1611   26.0547 H   0  0  0  0  0  0
    9.2374    4.6650   26.0869 H   0  0  0  0  0  0
   12.4539   -3.8510   19.7406 H   0  0  0  0  0  0
   12.0093   -4.8369   17.5433 H   0  0  0  0  0  0
    6.4395   -0.7879   19.3762 H   0  0  0  0  0  0
  1  8  1  0  0  0
  1 14  1  0  0  0
  1 31  1  0  0  0
  2  3  1  0  0  0
  2 15  1  0  0  0
  2 32  1  0  0  0
  2 33  1  0  0  0
  3 19  1  0  0  0
  3 34  1  0  0  0
  3 35  1  0  0  0
  4  5  1  0  0  0
  4 16  2  0  0  0
  4 19  1  0  0  0
  5  6  2  0  0  0
  5 36  1  0  0  0
  6 17  1  0  0  0
  6 37  1  0  0  0
  7 16  1  0  0  0
  7 17  2  0  0  0
  7 38  1  0  0  0
  8 12  1  0  0  0
  8 30  2  0  0  0
  9 28  1  0  0  0
  9 29  2  0  0  0
  9 39  1  0  0  0
 10 27  1  0  0  0
 10 28  2  0  0  0
 10 40  1  0  0  0
 11 12  2  0  0  0
 11 26  1  0  0  0
 11 41  1  0  0  0
 12 28  1  0  0  0
 13 14  2  0  0  0
 14 15  1  0  0  0
 15 16  1  0  0  0
 15 20  1  0  0  0
 17 18  1  0  0  0
 20 21  1  0  0  0
 20 42  1  0  0  0
 20 43  1  0  0  0
 21 22  1  0  0  0
 21 44  1  0  0  0
 22 23  2  0  0  0
 22 24  1  0  0  0
 24 25  1  0  0  0
 25 45  1  0  0  0
 25 46  1  0  0  0
 25 47  1  0  0  0
 26 27  2  0  0  0
 26 48  1  0  0  0
 27 49  1  0  0  0
 29 30  1  0  0  0
 30 50  1  0  0  0
M  END
> <s_m_entry_id>
1583

> <s_m_entry_name>
133_ligand

> <s_pdb_PDB_TITLE>
GROUP DEPOSITION SARS-COV-2 MAIN PROTEASE IN COMPLEX WITH INHIBITORS FROM THE COVID MOONSHOT -- CRYSTAL STRUCTURE OF SARS-COV-2 MAIN PROTEASE IN COMPLEX WITH MAT-POS-E6DD326D-6 (MPRO-P1200)

> <s_pdb_PDB_ID>
7GKW

> <s_m_Source_File>
7gkw.pdb.gz

> <s_user_Compound_ID>
MAT-POS-e6dd326d-6

> <s_user_Monomer-Dimer>
Dimer

> <s_user_xcode>
Mpro-P1200

$$$$
