7GKX_ligand
                    3D
 Schrodinger Suite 2021-2.
 51 54  0  0  1  0            999 V2000
    8.6964   -1.0102   20.7534 N   0  0  0  0  0  0
    8.6088   -0.7667   23.1724 C   0  0  1  0  0  0
    8.1958   -1.5258   21.9096 C   0  0  0  0  0  0
    8.5368   -1.5143   19.4381 C   0  0  0  0  0  0
    7.3922   -1.3108   18.6625 C   0  0  0  0  0  0
    7.9928   -2.8247   17.0689 C   0  0  0  0  0  0
   10.1541   -4.0582   17.2111 C   0  0  0  0  0  0
   10.7692   -2.6695   19.5442 C   0  0  0  0  0  0
    7.5798   -0.9966   24.2631 C   0  0  0  0  0  0
    5.4389   -0.5464   25.2537 C   0  0  0  0  0  0
    7.8061   -1.9859   25.2332 C   0  0  0  0  0  0
    9.1019   -2.7621   25.3060 C   0  0  0  0  0  0
    3.8896    0.2438   25.1644 Cl  0  0  0  0  0  0
    6.3947   -0.2601   24.2970 C   0  0  0  0  0  0
    5.6439   -1.5171   26.2084 C   0  0  0  0  0  0
    6.8277   -2.2315   26.1955 C   0  0  0  0  0  0
    9.9073   -2.6504   24.0777 N   0  3  2  0  0  0
   11.2484   -3.2249   24.2469 C   0  0  0  0  0  0
   11.8454   -3.8057   22.9947 C   0  0  0  0  0  0
   13.1326   -4.3035   23.3159 O   0  0  0  0  0  0
   13.7076   -5.0443   22.2474 C   0  0  0  0  0  0
    9.9839   -1.2555   23.6291 C   0  0  0  0  0  0
    7.4955   -2.5409   21.9543 O   0  0  0  0  0  0
    9.5117   -2.4314   18.9290 C   0  0  0  0  0  0
   11.6632   -3.5495   19.0008 C   0  0  0  0  0  0
   11.3491   -4.2544   17.8425 C   0  0  0  0  0  0
    9.2136   -3.1275   17.7209 C   0  0  0  0  0  0
    7.1135   -1.9388   17.5101 N   0  0  0  0  0  0
    9.2555   -0.1693   20.7759 H   0  0  0  0  0  0
    8.6628    0.2988   22.9490 H   0  0  0  0  0  0
    6.6446   -0.5987   18.9795 H   0  0  0  0  0  0
    7.7309   -3.3302   16.1511 H   0  0  0  0  0  0
    9.9189   -4.6143   16.3156 H   0  0  0  0  0  0
   11.0313   -2.1519   20.4551 H   0  0  0  0  0  0
    8.8845   -3.8121   25.5023 H   0  0  0  0  0  0
    9.6871   -2.4110   26.1560 H   0  0  0  0  0  0
    6.2284    0.5287   23.5783 H   0  0  0  0  0  0
    4.8857   -1.7111   26.9527 H   0  0  0  0  0  0
    6.9881   -2.9902   26.9472 H   0  0  0  0  0  0
    9.4379   -3.1781   23.3556 H   0  0  0  0  0  0
   11.2175   -3.9915   25.0211 H   0  0  0  0  0  0
   11.9189   -2.4644   24.6471 H   0  0  0  0  0  0
   11.9363   -3.0246   22.2399 H   0  0  0  0  0  0
   11.2184   -4.6234   22.6393 H   0  0  0  0  0  0
   14.6931   -5.4041   22.5431 H   0  0  0  0  0  0
   13.0680   -5.8938   22.0081 H   0  0  0  0  0  0
   13.8032   -4.4038   21.3706 H   0  0  0  0  0  0
   10.3380   -0.6297   24.4482 H   0  0  0  0  0  0
   10.6897   -1.1784   22.8020 H   0  0  0  0  0  0
   12.6234   -3.7030   19.4707 H   0  0  0  0  0  0
   12.0609   -4.9619   17.4436 H   0  0  0  0  0  0
  1  3  1  0  0  0
  1  4  1  0  0  0
  1 29  1  0  0  0
  2  3  1  0  0  0
  2  9  1  0  0  0
  2 22  1  0  0  0
  2 30  1  0  0  0
  3 23  2  0  0  0
  4  5  2  0  0  0
  4 24  1  0  0  0
  5 28  1  0  0  0
  5 31  1  0  0  0
  6 27  1  0  0  0
  6 28  2  0  0  0
  6 32  1  0  0  0
  7 26  1  0  0  0
  7 27  2  0  0  0
  7 33  1  0  0  0
  8 24  2  0  0  0
  8 25  1  0  0  0
  8 34  1  0  0  0
  9 11  1  0  0  0
  9 14  2  0  0  0
 10 13  1  0  0  0
 10 14  1  0  0  0
 10 15  2  0  0  0
 11 12  1  0  0  0
 11 16  2  0  0  0
 12 17  1  0  0  0
 12 35  1  0  0  0
 12 36  1  0  0  0
 14 37  1  0  0  0
 15 16  1  0  0  0
 15 38  1  0  0  0
 16 39  1  0  0  0
 17 18  1  0  0  0
 17 22  1  0  0  0
 17 40  1  0  0  0
 18 19  1  0  0  0
 18 41  1  0  0  0
 18 42  1  0  0  0
 19 20  1  0  0  0
 19 43  1  0  0  0
 19 44  1  0  0  0
 20 21  1  0  0  0
 21 45  1  0  0  0
 21 46  1  0  0  0
 21 47  1  0  0  0
 22 48  1  0  0  0
 22 49  1  0  0  0
 24 27  1  0  0  0
 25 26  2  0  0  0
 25 50  1  0  0  0
 26 51  1  0  0  0
M  CHG  1  17   1
M  END
> <s_m_entry_id>
1585

> <s_m_entry_name>
135_ligand

> <s_pdb_PDB_TITLE>
GROUP DEPOSITION SARS-COV-2 MAIN PROTEASE IN COMPLEX WITH INHIBITORS FROM THE COVID MOONSHOT -- CRYSTAL STRUCTURE OF SARS-COV-2 MAIN PROTEASE IN COMPLEX WITH MAT-POS-4223BC15-28 (MPRO-P1202)

> <s_pdb_PDB_ID>
7GKX

> <s_m_Source_File>
7gkx.pdb.gz

> <s_user_Compound_ID>
MAT-POS-4223bc15-28

> <s_user_Monomer-Dimer>
Dimer

> <s_user_xcode>
Mpro-P1202

$$$$
