7GKY_ligand
                    3D
 Schrodinger Suite 2021-2.
 34 36  0  0  1  0            999 V2000
   11.1493   -3.7796   18.3383 N   0  0  0  0  0  0
    8.6556   -0.9079   20.5968 N   0  0  0  0  0  0
    7.2959   -1.3154   18.6182 C   0  0  0  0  0  0
    8.4687   -1.5324   19.3381 C   0  0  0  0  0  0
    8.2009   -1.3620   21.7889 C   0  0  0  0  0  0
    8.4578   -0.4295   22.9566 C   0  0  0  0  0  0
    7.6278   -0.7533   24.1804 C   0  0  0  0  0  0
    7.2796   -2.0323   26.2010 C   0  0  0  0  0  0
    6.3592   -0.2024   24.3327 C   0  0  0  0  0  0
    3.9505    0.0371   25.5160 Cl  0  0  0  0  0  0
    5.5663   -0.5961   25.3939 C   0  0  0  0  0  0
    6.0040   -1.5109   26.3315 C   0  0  0  0  0  0
    8.0835   -1.6554   25.1347 C   0  0  0  0  0  0
    7.6178   -2.4385   21.9343 O   0  0  0  0  0  0
    7.0046   -1.9377   17.4676 N   0  0  0  0  0  0
    7.8946   -2.8119   16.9848 C   0  0  0  0  0  0
    9.3923   -2.4403   18.8010 C   0  0  0  0  0  0
   10.6252   -2.8707   19.2120 N   0  0  0  0  0  0
   11.3901   -2.5109   20.3972 C   0  0  0  0  0  0
    9.1174   -3.1189   17.5918 C   0  0  0  0  0  0
   10.2595   -3.9318   17.3803 C   0  0  0  0  0  0
    9.1700   -0.0409   20.6590 H   0  0  0  0  0  0
    6.5611   -0.6124   18.9822 H   0  0  0  0  0  0
    8.2631    0.5979   22.6488 H   0  0  0  0  0  0
    9.5155   -0.4604   23.2184 H   0  0  0  0  0  0
    7.6528   -2.7356   26.9309 H   0  0  0  0  0  0
    5.9992    0.5285   23.6238 H   0  0  0  0  0  0
    5.3753   -1.8211   27.1530 H   0  0  0  0  0  0
    9.0760   -2.0733   25.0523 H   0  0  0  0  0  0
    7.6903   -3.3376   16.0637 H   0  0  0  0  0  0
   10.8321   -1.7798   20.9823 H   0  0  0  0  0  0
   11.5656   -3.4012   21.0011 H   0  0  0  0  0  0
   12.3461   -2.0819   20.0969 H   0  0  0  0  0  0
   10.4539   -4.6144   16.5661 H   0  0  0  0  0  0
  1 18  1  0  0  0
  1 21  2  0  0  0
  2  4  1  0  0  0
  2  5  1  0  0  0
  2 22  1  0  0  0
  3  4  2  0  0  0
  3 15  1  0  0  0
  3 23  1  0  0  0
  4 17  1  0  0  0
  5  6  1  0  0  0
  5 14  2  0  0  0
  6  7  1  0  0  0
  6 24  1  0  0  0
  6 25  1  0  0  0
  7  9  1  0  0  0
  7 13  2  0  0  0
  8 12  2  0  0  0
  8 13  1  0  0  0
  8 26  1  0  0  0
  9 11  2  0  0  0
  9 27  1  0  0  0
 10 11  1  0  0  0
 11 12  1  0  0  0
 12 28  1  0  0  0
 13 29  1  0  0  0
 15 16  2  0  0  0
 16 20  1  0  0  0
 16 30  1  0  0  0
 17 18  1  0  0  0
 17 20  2  0  0  0
 18 19  1  0  0  0
 19 31  1  0  0  0
 19 32  1  0  0  0
 19 33  1  0  0  0
 20 21  1  0  0  0
 21 34  1  0  0  0
M  END
> <s_m_entry_id>
1587

> <s_m_entry_name>
137_ligand

> <s_pdb_PDB_TITLE>
GROUP DEPOSITION SARS-COV-2 MAIN PROTEASE IN COMPLEX WITH INHIBITORS FROM THE COVID MOONSHOT -- CRYSTAL STRUCTURE OF SARS-COV-2 MAIN PROTEASE IN COMPLEX WITH RUB-POS-1325A9EA-14 (MPRO-P1470)

> <s_pdb_PDB_ID>
7GKY

> <s_m_Source_File>
7gky.pdb.gz

> <s_user_Compound_ID>
RUB-POS-1325a9ea-14

> <s_user_Monomer-Dimer>
Dimer

> <s_user_xcode>
Mpro-P1470

$$$$
