7GKZ_ligand
                    3D
 Schrodinger Suite 2021-2.
 41 43  0  0  1  0            999 V2000
    7.1596   -1.7131   18.0148 N   0  0  0  0  0  0
    8.3162   -1.3216   20.0923 C   0  0  0  0  0  0
    7.8332   -1.4921   22.5189 C   0  0  0  0  0  0
    8.0897   -0.7802   23.8500 C   0  0  2  0  0  0
    9.4385   -1.2507   24.4253 C   0  0  0  0  0  0
    9.2953   -2.6253   25.0342 C   0  0  0  0  0  0
    6.0125   -2.4493   26.5755 C   0  0  0  0  0  0
    5.7315   -0.3930   24.7251 C   0  0  0  0  0  0
    9.4515   -2.0093   19.6282 C   0  0  0  0  0  0
    3.1216   -0.0140   25.3046 Cl  0  0  0  0  0  0
    4.6732   -0.7813   25.5235 C   0  0  0  0  0  0
    4.7956   -1.8021   26.4421 C   0  0  0  0  0  0
    6.9521   -1.0634   24.8143 C   0  0  0  0  0  0
    7.0849   -2.0705   25.7769 C   0  0  0  0  0  0
    8.2923   -2.6576   26.0788 O   0  0  0  0  0  0
    7.3063   -2.6065   22.4604 O   0  0  0  0  0  0
    8.2987   -0.8299   21.4295 N   0  0  0  0  0  0
    7.2131   -1.1905   19.2488 C   0  0  0  0  0  0
    8.2296   -2.3869   17.5786 C   0  0  0  0  0  0
   10.6963   -2.1296   20.4772 C   0  0  0  0  0  0
    9.3955   -2.5605   18.3364 C   0  0  0  0  0  0
   10.4624   -3.3012   17.8781 N   0  0  0  0  0  0
   10.4726   -3.9925   16.6090 C   0  0  0  0  0  0
    8.1394    0.2939   23.6705 H   0  0  0  0  0  0
    9.7723   -0.5482   25.1891 H   0  0  0  0  0  0
   10.1818   -1.2822   23.6287 H   0  0  0  0  0  0
   10.2548   -2.9425   25.4430 H   0  0  0  0  0  0
    9.0310   -3.3410   24.2556 H   0  0  0  0  0  0
    6.1249   -3.2446   27.2977 H   0  0  0  0  0  0
    5.6133    0.4281   24.0335 H   0  0  0  0  0  0
    3.9564   -2.0986   27.0538 H   0  0  0  0  0  0
    8.6558    0.0927   21.6331 H   0  0  0  0  0  0
    6.3727   -0.6337   19.6363 H   0  0  0  0  0  0
    8.2234   -2.8315   16.5944 H   0  0  0  0  0  0
   11.4531   -2.6966   19.9350 H   0  0  0  0  0  0
   11.0806   -1.1347   20.7026 H   0  0  0  0  0  0
   10.4543   -2.6443   21.4070 H   0  0  0  0  0  0
   11.2983   -3.3836   18.4392 H   0  0  0  0  0  0
   11.4272   -4.5029   16.4804 H   0  0  0  0  0  0
    9.6644   -4.7236   16.5863 H   0  0  0  0  0  0
   10.3340   -3.2733   15.8017 H   0  0  0  0  0  0
  1 18  1  0  0  0
  1 19  2  0  0  0
  2  9  1  0  0  0
  2 17  1  0  0  0
  2 18  2  0  0  0
  3  4  1  0  0  0
  3 16  2  0  0  0
  3 17  1  0  0  0
  4  5  1  0  0  0
  4 13  1  0  0  0
  4 24  1  0  0  0
  5  6  1  0  0  0
  5 25  1  0  0  0
  5 26  1  0  0  0
  6 15  1  0  0  0
  6 27  1  0  0  0
  6 28  1  0  0  0
  7 12  1  0  0  0
  7 14  2  0  0  0
  7 29  1  0  0  0
  8 11  1  0  0  0
  8 13  2  0  0  0
  8 30  1  0  0  0
  9 20  1  0  0  0
  9 21  2  0  0  0
 10 11  1  0  0  0
 11 12  2  0  0  0
 12 31  1  0  0  0
 13 14  1  0  0  0
 14 15  1  0  0  0
 17 32  1  0  0  0
 18 33  1  0  0  0
 19 21  1  0  0  0
 19 34  1  0  0  0
 20 35  1  0  0  0
 20 36  1  0  0  0
 20 37  1  0  0  0
 21 22  1  0  0  0
 22 23  1  0  0  0
 22 38  1  0  0  0
 23 39  1  0  0  0
 23 40  1  0  0  0
 23 41  1  0  0  0
M  END
> <s_m_entry_id>
1589

> <s_m_entry_name>
139_ligand

> <s_pdb_PDB_TITLE>
GROUP DEPOSITION SARS-COV-2 MAIN PROTEASE IN COMPLEX WITH INHIBITORS FROM THE COVID MOONSHOT -- CRYSTAL STRUCTURE OF SARS-COV-2 MAIN PROTEASE IN COMPLEX WITH MAT-POS-AFB6844F-1 (MPRO-P1474)

> <s_pdb_PDB_ID>
7GKZ

> <s_m_Source_File>
7gkz.pdb.gz

> <s_user_Compound_ID>
MAT-POS-afb6844f-1

> <s_user_Monomer-Dimer>
Dimer

> <s_user_xcode>
Mpro-P1474

$$$$
