7GL0_ligand
                    3D
 Schrodinger Suite 2021-2.
 63 67  0  0  1  0            999 V2000
   11.5918    3.5243   25.7896 N   0  0  0  0  0  0
    7.1541   -2.1978   17.2990 N   0  0  0  0  0  0
    7.5244   -0.8783   24.0986 C   0  0  0  0  0  0
    6.4208   -0.1053   24.4490 C   0  0  0  0  0  0
    8.3393   -0.5036   22.8669 C   0  0  2  0  0  0
   10.7202   -1.0763   23.1601 C   0  0  0  0  0  0
   12.1288   -0.5185   23.3157 C   0  0  1  0  0  0
   12.2879    0.3280   25.5333 C   0  0  0  0  0  0
   10.5711    4.3997   26.3757 C   0  0  0  0  0  0
   12.6091    4.3381   27.7134 C   0  0  0  0  0  0
    8.1147   -1.4594   21.6680 C   0  0  0  0  0  0
    8.1215   -3.0067   16.8894 C   0  0  0  0  0  0
    9.3473   -3.1956   17.5733 C   0  0  0  0  0  0
   10.3519   -4.0936   17.1305 C   0  0  0  0  0  0
   11.7353   -3.5033   18.9942 C   0  0  0  0  0  0
    9.5581   -2.4537   18.7704 C   0  0  0  0  0  0
    7.5221   -2.5346   21.7919 O   0  0  0  0  0  0
    8.6100   -0.9978   20.4946 N   0  0  0  0  0  0
    8.5040   -1.5975   19.2250 C   0  0  0  0  0  0
   10.7891   -2.6291   19.4569 C   0  0  0  0  0  0
   11.5136   -4.2386   17.8352 C   0  0  0  0  0  0
    7.3522   -1.5200   18.4378 C   0  0  0  0  0  0
    7.8405   -1.9915   24.8686 C   0  0  0  0  0  0
    7.0633   -2.3394   25.9637 C   0  0  0  0  0  0
    5.9563   -1.5760   26.3059 C   0  0  0  0  0  0
    5.6475   -0.4720   25.5331 C   0  0  0  0  0  0
    4.2165    0.4482   25.8956 Cl  0  0  0  0  0  0
    9.7252   -0.1776   23.1719 N   0  0  0  0  0  0
   10.5466   -2.2922   23.0648 O   0  0  0  0  0  0
   12.1289    0.9245   23.2610 O   0  0  0  0  0  0
   12.3490    1.5101   24.5693 C   0  0  1  0  0  0
   12.7367   -0.8544   24.6614 C   0  0  0  0  0  0
   11.2927    2.5841   24.8723 C   0  0  0  0  0  0
   10.2122    2.5681   24.3048 O   0  0  0  0  0  0
   12.9188    3.8195   26.3365 C   0  0  0  0  0  0
   11.3033    5.0916   27.5185 C   0  0  0  0  0  0
    6.1737    0.7754   23.8745 H   0  0  0  0  0  0
    7.9080    0.4424   22.5391 H   0  0  0  0  0  0
   12.7644   -0.9119   22.5222 H   0  0  0  0  0  0
   11.2553    0.1725   25.8465 H   0  0  0  0  0  0
   13.0119    0.4795   26.3344 H   0  0  0  0  0  0
    9.7636    3.7902   26.7816 H   0  0  0  0  0  0
   10.2683    5.1439   25.6389 H   0  0  0  0  0  0
   13.3871    5.0387   28.0178 H   0  0  0  0  0  0
   12.4422    3.4965   28.3857 H   0  0  0  0  0  0
    8.0011   -3.5747   15.9784 H   0  0  0  0  0  0
   10.2021   -4.6699   16.2291 H   0  0  0  0  0  0
   12.6647   -3.6270   19.5307 H   0  0  0  0  0  0
    9.1227   -0.1278   20.4703 H   0  0  0  0  0  0
   10.9733   -2.0602   20.3566 H   0  0  0  0  0  0
   12.2703   -4.9297   17.4932 H   0  0  0  0  0  0
    6.5879   -0.8530   18.8093 H   0  0  0  0  0  0
    8.6995   -2.5964   24.6168 H   0  0  0  0  0  0
    7.3192   -3.2073   26.5534 H   0  0  0  0  0  0
    5.3556   -1.8487   27.1610 H   0  0  0  0  0  0
    9.9184    0.7870   23.4016 H   0  0  0  0  0  0
   13.3427    1.9571   24.6051 H   0  0  0  0  0  0
   13.8237   -0.8459   24.5768 H   0  0  0  0  0  0
   12.2854   -1.7716   25.0401 H   0  0  0  0  0  0
   13.3814    4.6128   25.7492 H   0  0  0  0  0  0
   13.4874    2.8930   26.4204 H   0  0  0  0  0  0
   10.7052    5.0215   28.4271 H   0  0  0  0  0  0
   11.5183    6.1232   27.2394 H   0  0  0  0  0  0
  1  9  1  0  0  0
  1 33  1  0  0  0
  1 35  1  0  0  0
  2 12  1  0  0  0
  2 22  2  0  0  0
  3  4  1  0  0  0
  3  5  1  0  0  0
  3 23  2  0  0  0
  4 26  2  0  0  0
  4 37  1  0  0  0
  5 11  1  0  0  0
  5 28  1  0  0  0
  5 38  1  0  0  0
  6  7  1  0  0  0
  6 28  1  0  0  0
  6 29  2  0  0  0
  7 30  1  0  0  0
  7 32  1  0  0  0
  7 39  1  0  0  0
  8 31  1  0  0  0
  8 32  1  0  0  0
  8 40  1  0  0  0
  8 41  1  0  0  0
  9 36  1  0  0  0
  9 42  1  0  0  0
  9 43  1  0  0  0
 10 35  1  0  0  0
 10 36  1  0  0  0
 10 44  1  0  0  0
 10 45  1  0  0  0
 11 17  2  0  0  0
 11 18  1  0  0  0
 12 13  2  0  0  0
 12 46  1  0  0  0
 13 14  1  0  0  0
 13 16  1  0  0  0
 14 21  2  0  0  0
 14 47  1  0  0  0
 15 20  2  0  0  0
 15 21  1  0  0  0
 15 48  1  0  0  0
 16 19  2  0  0  0
 16 20  1  0  0  0
 18 19  1  0  0  0
 18 49  1  0  0  0
 19 22  1  0  0  0
 20 50  1  0  0  0
 21 51  1  0  0  0
 22 52  1  0  0  0
 23 24  1  0  0  0
 23 53  1  0  0  0
 24 25  2  0  0  0
 24 54  1  0  0  0
 25 26  1  0  0  0
 25 55  1  0  0  0
 26 27  1  0  0  0
 28 56  1  0  0  0
 30 31  1  0  0  0
 31 33  1  0  0  0
 31 57  1  0  0  0
 32 58  1  0  0  0
 32 59  1  0  0  0
 33 34  2  0  0  0
 35 60  1  0  0  0
 35 61  1  0  0  0
 36 62  1  0  0  0
 36 63  1  0  0  0
M  END
> <s_m_entry_id>
1591

> <s_m_entry_name>
141_ligand

> <s_pdb_PDB_TITLE>
GROUP DEPOSITION SARS-COV-2 MAIN PROTEASE IN COMPLEX WITH INHIBITORS FROM THE COVID MOONSHOT -- CRYSTAL STRUCTURE OF SARS-COV-2 MAIN PROTEASE IN COMPLEX WITH MAT-POS-A13804F0-4 (MPRO-P1477)

> <s_pdb_PDB_ID>
7GL0

> <s_m_Source_File>
7gl0.pdb.gz

> <s_user_Compound_ID>
MAT-POS-a13804f0-4

> <s_user_Monomer-Dimer>
Dimer

> <s_user_xcode>
Mpro-P1477

$$$$
