7GL1_ligand
                    3D
 Schrodinger Suite 2021-2.
 40 44  0  0  1  0            999 V2000
    8.5422   -1.2577   21.0614 N   0  0  0  0  0  0
    7.9685   -2.6347   17.1591 C   0  0  0  0  0  0
    7.2860   -1.3921   18.9419 C   0  0  0  0  0  0
    8.4121   -1.6907   19.7026 C   0  0  0  0  0  0
    9.2428   -0.0120   21.4105 C   0  0  0  0  0  0
    8.8353    0.2384   22.8580 C   0  0  0  0  0  0
    9.5582   -1.9456   24.1780 C   0  0  0  0  0  0
    5.5379   -1.6107   26.4461 C   0  0  0  0  0  0
    6.2061   -0.3611   24.4820 C   0  0  0  0  0  0
    8.0374   -1.9113   22.1475 C   0  0  0  0  0  0
    7.3543   -2.9185   22.1158 O   0  0  0  0  0  0
    8.4705   -1.1592   23.4075 C   0  0  2  0  0  0
    7.3895   -1.0918   24.4467 C   0  0  0  0  0  0
    5.2899   -0.6491   25.4770 C   0  0  0  0  0  0
    3.7611    0.1952   25.4858 Cl  0  0  0  0  0  0
    6.7360   -2.3087   26.4258 C   0  0  0  0  0  0
    7.6527   -2.0371   25.4237 C   0  0  0  0  0  0
    8.9042   -2.6062   25.3033 O   0  0  0  0  0  0
    7.0500   -1.8497   17.7039 N   0  0  0  0  0  0
    9.4007   -2.5374   19.1208 C   0  0  0  0  0  0
   10.5716   -2.9550   19.8023 C   0  0  0  0  0  0
   11.4283   -3.8002   19.1766 C   0  0  0  0  0  0
   12.5127   -4.2381   19.8642 F   0  0  0  0  0  0
    9.1683   -3.0225   17.8041 C   0  0  0  0  0  0
   10.1198   -3.8894   17.2148 C   0  0  0  0  0  0
   11.2352   -4.2707   17.8982 C   0  0  0  0  0  0
    7.8252   -3.0213   16.1608 H   0  0  0  0  0  0
    6.5192   -0.7456   19.3428 H   0  0  0  0  0  0
    8.8688    0.7990   20.7855 H   0  0  0  0  0  0
   10.3191   -0.1785   21.3629 H   0  0  0  0  0  0
    7.9518    0.8767   22.8792 H   0  0  0  0  0  0
    9.6885    0.6322   23.4105 H   0  0  0  0  0  0
   10.3109   -1.2517   24.5524 H   0  0  0  0  0  0
    9.9964   -2.6971   23.5211 H   0  0  0  0  0  0
    4.8002   -1.8111   27.2091 H   0  0  0  0  0  0
    6.0234    0.4069   23.7449 H   0  0  0  0  0  0
    6.9420   -3.0503   27.1836 H   0  0  0  0  0  0
   10.7694   -2.6005   20.8032 H   0  0  0  0  0  0
    9.9663   -4.2575   16.2109 H   0  0  0  0  0  0
   11.9624   -4.9322   17.4506 H   0  0  0  0  0  0
  1  4  1  0  0  0
  1  5  1  0  0  0
  1 10  1  0  0  0
  2 19  1  0  0  0
  2 24  2  0  0  0
  2 27  1  0  0  0
  3  4  1  0  0  0
  3 19  2  0  0  0
  3 28  1  0  0  0
  4 20  2  0  0  0
  5  6  1  0  0  0
  5 29  1  0  0  0
  5 30  1  0  0  0
  6 12  1  0  0  0
  6 31  1  0  0  0
  6 32  1  0  0  0
  7 12  1  0  0  0
  7 18  1  0  0  0
  7 33  1  0  0  0
  7 34  1  0  0  0
  8 14  1  0  0  0
  8 16  2  0  0  0
  8 35  1  0  0  0
  9 13  1  0  0  0
  9 14  2  0  0  0
  9 36  1  0  0  0
 10 11  2  0  0  0
 10 12  1  0  0  0
 12 13  1  0  0  0
 13 17  2  0  0  0
 14 15  1  0  0  0
 16 17  1  0  0  0
 16 37  1  0  0  0
 17 18  1  0  0  0
 20 21  1  0  0  0
 20 24  1  0  0  0
 21 22  2  0  0  0
 21 38  1  0  0  0
 22 23  1  0  0  0
 22 26  1  0  0  0
 24 25  1  0  0  0
 25 26  2  0  0  0
 25 39  1  0  0  0
 26 40  1  0  0  0
M  END
> <s_m_entry_id>
1593

> <s_m_entry_name>
143_ligand

> <s_pdb_PDB_TITLE>
GROUP DEPOSITION SARS-COV-2 MAIN PROTEASE IN COMPLEX WITH INHIBITORS FROM THE COVID MOONSHOT -- CRYSTAL STRUCTURE OF SARS-COV-2 MAIN PROTEASE IN COMPLEX WITH MAT-POS-8293A91A-8 (MPRO-P1507)

> <s_pdb_PDB_ID>
7GL1

> <s_m_Source_File>
7gl1.pdb.gz

> <s_user_Compound_ID>
MAT-POS-8293a91a-8

> <s_user_Monomer-Dimer>
Dimer

> <s_user_xcode>
Mpro-P1507

$$$$
