7GL2_ligand
                    3D
 Schrodinger Suite 2021-2.
 53 57  0  0  1  0            999 V2000
    8.6783   -1.0600   20.9565 N   0  0  0  0  0  0
   10.4236   -4.8783   23.2835 N   0  0  1  0  0  0
    9.0262   -2.7770   25.5088 C   0  0  0  0  0  0
    9.8921   -1.2137   23.8155 C   0  0  0  0  0  0
    8.5001   -0.7617   23.3714 C   0  0  1  0  0  0
    8.0918   -1.5113   22.0985 C   0  0  0  0  0  0
    8.5038   -1.5476   19.6363 C   0  0  0  0  0  0
    8.0141   -2.6641   17.1576 C   0  0  0  0  0  0
   11.4206   -4.0366   17.8260 C   0  0  0  0  0  0
   10.7667   -2.6531   19.6687 C   0  0  0  0  0  0
    7.4713   -1.0385   24.4564 C   0  0  0  0  0  0
   10.0028   -6.5430   21.9975 C   0  0  0  0  0  0
    9.5529   -5.0625   22.0889 C   0  0  0  0  0  0
    9.0317   -7.5642   22.4294 C   0  0  0  0  0  0
    8.2763   -8.3361   22.7960 N   0  0  0  0  0  0
   11.0666   -6.2048   23.0736 C   0  0  0  0  0  0
   11.0494   -3.5574   23.9461 S   0  0  0  0  0  0
   11.6070   -3.9654   25.1886 O   0  0  0  0  0  0
   11.8525   -2.8941   22.9762 O   0  0  0  0  0  0
    9.8032   -2.6126   24.2767 N   0  0  1  0  0  0
    7.7104   -2.0381   25.4156 C   0  0  0  0  0  0
    6.7063   -2.3565   26.3291 C   0  0  0  0  0  0
    5.4941   -1.6950   26.3190 C   0  0  0  0  0  0
    6.2553   -0.3512   24.4727 C   0  0  0  0  0  0
    5.2871   -0.6953   25.4003 C   0  0  0  0  0  0
    3.7606    0.1411   25.3867 Cl  0  0  0  0  0  0
    7.3009   -2.4509   22.1228 O   0  0  0  0  0  0
    9.5163   -2.3808   19.0557 C   0  0  0  0  0  0
   11.6894   -3.4594   19.0608 C   0  0  0  0  0  0
   10.2327   -3.8046   17.1935 C   0  0  0  0  0  0
    9.2521   -2.9663   17.7818 C   0  0  0  0  0  0
    7.0858   -1.8784   17.6867 N   0  0  0  0  0  0
    7.3395   -1.3450   18.8906 C   0  0  0  0  0  0
    9.3258   -0.2856   20.9932 H   0  0  0  0  0  0
    9.5990   -2.3933   26.3531 H   0  0  0  0  0  0
    8.8361   -3.8367   25.6794 H   0  0  0  0  0  0
   10.2344   -0.5823   24.6355 H   0  0  0  0  0  0
   10.5799   -1.1525   22.9720 H   0  0  0  0  0  0
    8.5213    0.3083   23.1643 H   0  0  0  0  0  0
    7.7806   -3.0836   16.1901 H   0  0  0  0  0  0
   12.1546   -4.6756   17.3574 H   0  0  0  0  0  0
   11.0022   -2.2212   20.6302 H   0  0  0  0  0  0
   10.4513   -6.7803   21.0327 H   0  0  0  0  0  0
   10.0118   -4.5252   21.2588 H   0  0  0  0  0  0
    8.5174   -5.0515   22.4291 H   0  0  0  0  0  0
   10.8567   -6.8171   23.9507 H   0  0  0  0  0  0
   12.0139   -6.0362   22.5612 H   0  0  0  0  0  0
    6.8693   -3.1329   27.0621 H   0  0  0  0  0  0
    4.7249   -1.9663   27.0271 H   0  0  0  0  0  0
    6.0747    0.4437   23.7641 H   0  0  0  0  0  0
   12.6341   -3.6458   19.5499 H   0  0  0  0  0  0
   10.0328   -4.2616   16.2356 H   0  0  0  0  0  0
    6.5530   -0.7141   19.2779 H   0  0  0  0  0  0
  1  6  1  0  0  0
  1  7  1  0  0  0
  1 34  1  0  0  0
  2 13  1  0  0  0
  2 16  1  0  0  0
  2 17  1  0  0  0
  3 20  1  0  0  0
  3 21  1  0  0  0
  3 35  1  0  0  0
  3 36  1  0  0  0
  4  5  1  0  0  0
  4 20  1  0  0  0
  4 37  1  0  0  0
  4 38  1  0  0  0
  5  6  1  0  0  0
  5 11  1  0  0  0
  5 39  1  0  0  0
  6 27  2  0  0  0
  7 28  1  0  0  0
  7 33  2  0  0  0
  8 31  1  0  0  0
  8 32  2  0  0  0
  8 40  1  0  0  0
  9 29  1  0  0  0
  9 30  2  0  0  0
  9 41  1  0  0  0
 10 28  1  0  0  0
 10 29  2  0  0  0
 10 42  1  0  0  0
 11 21  1  0  0  0
 11 24  2  0  0  0
 12 13  1  0  0  0
 12 14  1  0  0  0
 12 16  1  0  0  0
 12 43  1  0  0  0
 13 44  1  0  0  0
 13 45  1  0  0  0
 14 15  3  0  0  0
 16 46  1  0  0  0
 16 47  1  0  0  0
 17 18  2  0  0  0
 17 19  2  0  0  0
 17 20  1  0  0  0
 21 22  2  0  0  0
 22 23  1  0  0  0
 22 48  1  0  0  0
 23 25  2  0  0  0
 23 49  1  0  0  0
 24 25  1  0  0  0
 24 50  1  0  0  0
 25 26  1  0  0  0
 28 31  2  0  0  0
 29 51  1  0  0  0
 30 31  1  0  0  0
 30 52  1  0  0  0
 32 33  1  0  0  0
 33 53  1  0  0  0
M  END
> <s_m_entry_id>
1595

> <s_m_entry_name>
145_ligand

> <s_pdb_PDB_TITLE>
GROUP DEPOSITION SARS-COV-2 MAIN PROTEASE IN COMPLEX WITH INHIBITORS FROM THE COVID MOONSHOT -- CRYSTAL STRUCTURE OF SARS-COV-2 MAIN PROTEASE IN COMPLEX WITH EDJ-MED-1981CEBA-4 (MPRO-P1623)

> <s_pdb_PDB_ID>
7GL2

> <s_m_Source_File>
7gl2.pdb.gz

> <s_user_Compound_ID>
EDJ-MED-1981ceba-4

> <s_user_Monomer-Dimer>
Dimer

> <s_user_xcode>
Mpro-P1623

$$$$
