7GL3_ligand
                    3D
 Schrodinger Suite 2021-2.
 52 56  0  0  1  0            999 V2000
    8.6416   -1.1314   20.9290 N   0  0  0  0  0  0
   10.5875   -4.7706   22.8212 N   0  0  0  0  0  0
    9.0200   -2.8757   25.5855 C   0  0  0  0  0  0
    9.9302   -1.5122   23.7549 C   0  0  0  0  0  0
    8.5724   -0.9244   23.3585 C   0  0  1  0  0  0
    8.0848   -1.6037   22.0755 C   0  0  0  0  0  0
    8.4714   -1.6421   19.6174 C   0  0  0  0  0  0
    8.0403   -2.7887   17.1422 C   0  0  0  0  0  0
   11.5153   -3.9768   17.8040 C   0  0  0  0  0  0
   10.7907   -2.6232   19.6440 C   0  0  0  0  0  0
    7.5487   -1.1067   24.4708 C   0  0  0  0  0  0
   10.0112   -6.1715   21.3625 C   0  0  0  0  0  0
    9.2880   -5.0833   22.1665 C   0  0  0  0  0  0
   10.7972   -4.8788   25.2156 O   0  0  0  0  0  0
   10.9179   -3.9423   24.1513 S   0  0  0  0  0  0
   12.1271   -3.2232   23.9408 O   0  0  0  0  0  0
   11.3441   -5.5663   21.8151 C   0  0  0  0  0  0
    9.7396   -2.8663   24.3078 N   0  0  1  0  0  0
    7.7513   -2.0645   25.4820 C   0  0  0  0  0  0
    6.7503   -2.2804   26.4282 C   0  0  0  0  0  0
    5.5662   -1.5692   26.3917 C   0  0  0  0  0  0
    6.3639   -0.3625   24.4641 C   0  0  0  0  0  0
    5.3912   -0.6127   25.4188 C   0  0  0  0  0  0
    3.8894    0.2723   25.3616 Cl  0  0  0  0  0  0
    7.3009   -2.5511   22.0981 O   0  0  0  0  0  0
    9.5259   -2.4175   19.0318 C   0  0  0  0  0  0
   11.7548   -3.3812   19.0355 C   0  0  0  0  0  0
   10.3170   -3.8042   17.1709 C   0  0  0  0  0  0
    9.2951   -3.0157   17.7597 C   0  0  0  0  0  0
    7.0672   -2.0634   17.6758 N   0  0  0  0  0  0
    7.2903   -1.5167   18.8802 C   0  0  0  0  0  0
    9.2534   -0.3283   20.9582 H   0  0  0  0  0  0
    9.6570   -2.4556   26.3640 H   0  0  0  0  0  0
    8.7734   -3.9025   25.8556 H   0  0  0  0  0  0
   10.3961   -0.8752   24.5068 H   0  0  0  0  0  0
   10.5730   -1.5661   22.8762 H   0  0  0  0  0  0
    8.6947    0.1416   23.1660 H   0  0  0  0  0  0
    7.8289   -3.2191   16.1744 H   0  0  0  0  0  0
   12.2795   -4.5821   17.3392 H   0  0  0  0  0  0
   11.0044   -2.1784   20.6048 H   0  0  0  0  0  0
    9.8864   -5.9348   20.3058 H   0  0  0  0  0  0
    9.8815   -7.1132   21.8960 H   0  0  0  0  0  0
    9.0638   -4.2662   21.4807 H   0  0  0  0  0  0
    8.6634   -5.5852   22.9055 H   0  0  0  0  0  0
   11.8876   -6.3419   22.3548 H   0  0  0  0  0  0
   11.6713   -4.8787   21.0351 H   0  0  0  0  0  0
    6.8933   -3.0142   27.2077 H   0  0  0  0  0  0
    4.7943   -1.7679   27.1205 H   0  0  0  0  0  0
    6.2109    0.4026   23.7173 H   0  0  0  0  0  0
   12.7094   -3.5139   19.5231 H   0  0  0  0  0  0
   10.1404   -4.2701   16.2126 H   0  0  0  0  0  0
    6.4656   -0.9420   19.2751 H   0  0  0  0  0  0
  1  6  1  0  0  0
  1  7  1  0  0  0
  1 32  1  0  0  0
  2 13  1  0  0  0
  2 15  1  0  0  0
  2 17  1  0  0  0
  3 18  1  0  0  0
  3 19  1  0  0  0
  3 33  1  0  0  0
  3 34  1  0  0  0
  4  5  1  0  0  0
  4 18  1  0  0  0
  4 35  1  0  0  0
  4 36  1  0  0  0
  5  6  1  0  0  0
  5 11  1  0  0  0
  5 37  1  0  0  0
  6 25  2  0  0  0
  7 26  1  0  0  0
  7 31  2  0  0  0
  8 29  1  0  0  0
  8 30  2  0  0  0
  8 38  1  0  0  0
  9 27  1  0  0  0
  9 28  2  0  0  0
  9 39  1  0  0  0
 10 26  1  0  0  0
 10 27  2  0  0  0
 10 40  1  0  0  0
 11 19  1  0  0  0
 11 22  2  0  0  0
 12 13  1  0  0  0
 12 17  1  0  0  0
 12 41  1  0  0  0
 12 42  1  0  0  0
 13 43  1  0  0  0
 13 44  1  0  0  0
 14 15  2  0  0  0
 15 16  2  0  0  0
 15 18  1  0  0  0
 17 45  1  0  0  0
 17 46  1  0  0  0
 19 20  2  0  0  0
 20 21  1  0  0  0
 20 47  1  0  0  0
 21 23  2  0  0  0
 21 48  1  0  0  0
 22 23  1  0  0  0
 22 49  1  0  0  0
 23 24  1  0  0  0
 26 29  2  0  0  0
 27 50  1  0  0  0
 28 29  1  0  0  0
 28 51  1  0  0  0
 30 31  1  0  0  0
 31 52  1  0  0  0
M  END
> <s_m_entry_id>
1597

> <s_m_entry_name>
147_ligand

> <s_pdb_PDB_TITLE>
GROUP DEPOSITION SARS-COV-2 MAIN PROTEASE IN COMPLEX WITH INHIBITORS FROM THE COVID MOONSHOT -- CRYSTAL STRUCTURE OF SARS-COV-2 MAIN PROTEASE IN COMPLEX WITH EDJ-MED-1981CEBA-2 (MPRO-P1624)

> <s_pdb_PDB_ID>
7GL3

> <s_m_Source_File>
7gl3.pdb.gz

> <s_user_Compound_ID>
EDJ-MED-1981ceba-2

> <s_user_Monomer-Dimer>
Dimer

> <s_user_xcode>
Mpro-P1624

$$$$
