7GL4_ligand
                    3D
 Schrodinger Suite 2021-2.
 56 60  0  0  1  0            999 V2000
   10.0773   -2.3347   24.3678 N   0  0  3  0  0  0
    7.0520   -1.8740   17.6637 N   0  0  0  0  0  0
    9.9759   -0.9842   23.7845 C   0  0  0  0  0  0
    8.5610   -0.6820   23.2989 C   0  0  1  0  0  0
    8.1541   -1.4914   22.0637 C   0  0  0  0  0  0
    8.4976   -1.5605   19.5946 C   0  0  0  0  0  0
    7.3157   -1.3637   18.8756 C   0  0  0  0  0  0
    9.2315   -2.9329   17.7025 C   0  0  0  0  0  0
   11.6832   -3.4372   18.9468 C   0  0  0  0  0  0
    9.5108   -2.3620   18.9786 C   0  0  0  0  0  0
    6.3332   -0.2756   24.4210 C   0  0  0  0  0  0
    6.8984   -2.1350   26.3910 C   0  0  0  0  0  0
    7.8622   -1.8625   25.4213 C   0  0  0  0  0  0
    9.1662   -2.6362   25.4799 C   0  0  0  0  0  0
    3.8194    0.1401   25.3059 Cl  0  0  0  0  0  0
    5.3956   -0.5964   25.3823 C   0  0  0  0  0  0
    5.6606   -1.5203   26.3649 C   0  0  0  0  0  0
   11.2674   -3.2602   23.8290 S   0  0  0  0  0  0
   12.0296   -3.6828   24.9516 O   0  0  0  0  0  0
   11.8849   -2.5707   22.7484 O   0  0  0  0  0  0
   10.5215   -4.5509   23.2580 N   0  0  3  0  0  0
   10.5295   -5.9850   23.6533 C   0  0  0  0  0  0
    9.6046   -4.8276   22.1176 C   0  0  0  0  0  0
   10.0248   -6.3004   22.2353 C   0  0  0  0  0  0
   11.0717   -6.4888   21.2856 O   0  0  0  0  0  0
   10.6155   -6.9197   20.0153 C   0  0  0  0  0  0
    7.5661   -0.9299   24.4143 C   0  0  0  0  0  0
    7.3518   -2.4231   22.1276 O   0  0  0  0  0  0
    8.7140   -1.0714   20.9008 N   0  0  0  0  0  0
   10.7718   -2.6307   19.5686 C   0  0  0  0  0  0
   11.3947   -4.0135   17.7157 C   0  0  0  0  0  0
   10.2031   -3.7686   17.0951 C   0  0  0  0  0  0
    7.9812   -2.6382   17.1056 C   0  0  0  0  0  0
   10.6720   -0.8962   22.9504 H   0  0  0  0  0  0
   10.2695   -0.2445   24.5293 H   0  0  0  0  0  0
    8.5149    0.3751   23.0372 H   0  0  0  0  0  0
    6.5828   -0.7451   19.3722 H   0  0  0  0  0  0
   12.6382   -3.6318   19.4120 H   0  0  0  0  0  0
    6.1107    0.4778   23.6798 H   0  0  0  0  0  0
    7.1123   -2.8382   27.1823 H   0  0  0  0  0  0
    9.6678   -2.4286   26.4251 H   0  0  0  0  0  0
    8.9523   -3.7050   25.4927 H   0  0  0  0  0  0
    4.9187   -1.7684   27.1095 H   0  0  0  0  0  0
    9.6921   -6.1363   24.3345 H   0  0  0  0  0  0
   11.5718   -6.3001   23.7019 H   0  0  0  0  0  0
   10.0770   -4.4283   21.2200 H   0  0  0  0  0  0
    8.5858   -4.7517   22.4975 H   0  0  0  0  0  0
    9.2105   -7.0230   22.1806 H   0  0  0  0  0  0
   11.4666   -7.0418   19.3452 H   0  0  0  0  0  0
   10.0960   -7.8723   20.1191 H   0  0  0  0  0  0
    9.9326   -6.1771   19.6027 H   0  0  0  0  0  0
    9.3805   -0.3125   20.9065 H   0  0  0  0  0  0
   11.0072   -2.1868   20.5247 H   0  0  0  0  0  0
   12.1160   -4.6621   17.2408 H   0  0  0  0  0  0
   10.0038   -4.2177   16.1332 H   0  0  0  0  0  0
    7.8062   -3.0794   16.1354 H   0  0  0  0  0  0
  1  3  1  0  0  0
  1 14  1  0  0  0
  1 18  1  0  0  0
  2  7  1  0  0  0
  2 33  2  0  0  0
  3  4  1  0  0  0
  3 34  1  0  0  0
  3 35  1  0  0  0
  4  5  1  0  0  0
  4 27  1  0  0  0
  4 36  1  0  0  0
  5 28  2  0  0  0
  5 29  1  0  0  0
  6  7  2  0  0  0
  6 10  1  0  0  0
  6 29  1  0  0  0
  7 37  1  0  0  0
  8 10  1  0  0  0
  8 32  2  0  0  0
  8 33  1  0  0  0
  9 30  1  0  0  0
  9 31  2  0  0  0
  9 38  1  0  0  0
 10 30  2  0  0  0
 11 16  1  0  0  0
 11 27  2  0  0  0
 11 39  1  0  0  0
 12 13  2  0  0  0
 12 17  1  0  0  0
 12 40  1  0  0  0
 13 14  1  0  0  0
 13 27  1  0  0  0
 14 41  1  0  0  0
 14 42  1  0  0  0
 15 16  1  0  0  0
 16 17  2  0  0  0
 17 43  1  0  0  0
 18 19  2  0  0  0
 18 20  2  0  0  0
 18 21  1  0  0  0
 21 22  1  0  0  0
 21 23  1  0  0  0
 22 24  1  0  0  0
 22 44  1  0  0  0
 22 45  1  0  0  0
 23 24  1  0  0  0
 23 46  1  0  0  0
 23 47  1  0  0  0
 24 25  1  0  0  0
 24 48  1  0  0  0
 25 26  1  0  0  0
 26 49  1  0  0  0
 26 50  1  0  0  0
 26 51  1  0  0  0
 29 52  1  0  0  0
 30 53  1  0  0  0
 31 32  1  0  0  0
 31 54  1  0  0  0
 32 55  1  0  0  0
 33 56  1  0  0  0
M  END
> <s_m_entry_id>
1599

> <s_m_entry_name>
149_ligand

> <s_pdb_PDB_TITLE>
GROUP DEPOSITION SARS-COV-2 MAIN PROTEASE IN COMPLEX WITH INHIBITORS FROM THE COVID MOONSHOT -- CRYSTAL STRUCTURE OF SARS-COV-2 MAIN PROTEASE IN COMPLEX WITH EDJ-MED-1981CEBA-3 (MPRO-P1638)

> <s_pdb_PDB_ID>
7GL4

> <s_m_Source_File>
7gl4.pdb.gz

> <s_user_Compound_ID>
EDJ-MED-1981ceba-3

> <s_user_Monomer-Dimer>
Dimer

> <s_user_xcode>
Mpro-P1638

$$$$
