7GL6_ligand
                    3D
 Schrodinger Suite 2021-2.
 39 42  0  0  1  0            999 V2000
    7.1311   -1.9678   17.6837 N   0  0  0  0  0  0
    8.3271   -1.8069   19.7900 C   0  0  0  0  0  0
    7.2739   -1.5013   18.9352 C   0  0  0  0  0  0
    8.0749   -2.7782   17.2221 C   0  0  0  0  0  0
    9.2105   -3.1803   17.9666 C   0  0  0  0  0  0
   10.2054   -4.0502   17.4511 C   0  0  0  0  0  0
   11.4056   -3.9445   19.5209 C   0  0  0  0  0  0
    7.3888   -1.2532   24.6239 C   0  0  0  0  0  0
    6.6062   -2.1846   26.7160 C   0  0  0  0  0  0
    5.2146   -0.7029   25.4726 C   0  0  0  0  0  0
    3.6999    0.1333   25.2780 Cl  0  0  0  0  0  0
    5.3968   -1.5203   26.5738 C   0  0  0  0  0  0
    7.5942   -2.0512   25.7488 C   0  0  0  0  0  0
    6.1925   -0.5524   24.5043 C   0  0  0  0  0  0
    8.4078   -1.2084   23.4833 C   0  0  1  0  0  0
    9.6472   -1.8103   23.8448 O   0  0  0  0  0  0
    7.9110   -1.9573   22.2321 C   0  0  0  0  0  0
    7.2600   -2.9839   22.2280 O   0  0  0  0  0  0
    8.3912   -1.3106   21.1329 N   0  0  0  0  0  0
    9.0403   -0.0306   21.4632 C   0  0  0  0  0  0
    8.6513    0.2050   22.9211 C   0  0  0  0  0  0
    9.3426   -2.6847   19.2979 C   0  0  0  0  0  0
   10.4710   -3.1013   20.0560 C   0  0  0  0  0  0
   11.2744   -4.4158   18.2177 C   0  0  0  0  0  0
    6.5341   -0.8326   19.3500 H   0  0  0  0  0  0
    8.0038   -3.1744   16.2199 H   0  0  0  0  0  0
   10.1213   -4.4299   16.4435 H   0  0  0  0  0  0
   12.2567   -4.2515   20.1108 H   0  0  0  0  0  0
    6.7817   -2.8077   27.5805 H   0  0  0  0  0  0
    4.6208   -1.6468   27.3144 H   0  0  0  0  0  0
    8.5304   -2.5746   25.8759 H   0  0  0  0  0  0
    6.0325    0.1028   23.6607 H   0  0  0  0  0  0
   10.2556   -1.7610   23.1038 H   0  0  0  0  0  0
    8.6145    0.7595   20.8445 H   0  0  0  0  0  0
   10.1219   -0.1465   21.3931 H   0  0  0  0  0  0
    9.4879    0.6638   23.4481 H   0  0  0  0  0  0
    7.7220    0.7736   22.9592 H   0  0  0  0  0  0
   10.5842   -2.7422   21.0683 H   0  0  0  0  0  0
   12.0277   -5.0763   17.8141 H   0  0  0  0  0  0
  1  3  1  0  0  0
  1  4  2  0  0  0
  2  3  2  0  0  0
  2 19  1  0  0  0
  2 22  1  0  0  0
  3 25  1  0  0  0
  4  5  1  0  0  0
  4 26  1  0  0  0
  5  6  1  0  0  0
  5 22  2  0  0  0
  6 24  2  0  0  0
  6 27  1  0  0  0
  7 23  2  0  0  0
  7 24  1  0  0  0
  7 28  1  0  0  0
  8 13  1  0  0  0
  8 14  2  0  0  0
  8 15  1  0  0  0
  9 12  1  0  0  0
  9 13  2  0  0  0
  9 29  1  0  0  0
 10 11  1  0  0  0
 10 12  2  0  0  0
 10 14  1  0  0  0
 12 30  1  0  0  0
 13 31  1  0  0  0
 14 32  1  0  0  0
 15 16  1  0  0  0
 15 17  1  0  0  0
 15 21  1  0  0  0
 16 33  1  0  0  0
 17 18  2  0  0  0
 17 19  1  0  0  0
 19 20  1  0  0  0
 20 21  1  0  0  0
 20 34  1  0  0  0
 20 35  1  0  0  0
 21 36  1  0  0  0
 21 37  1  0  0  0
 22 23  1  0  0  0
 23 38  1  0  0  0
 24 39  1  0  0  0
M  END
> <s_m_entry_id>
1601

> <s_m_entry_name>
153_ligand

> <s_pdb_PDB_TITLE>
GROUP DEPOSITION SARS-COV-2 MAIN PROTEASE IN COMPLEX WITH INHIBITORS FROM THE COVID MOONSHOT -- CRYSTAL STRUCTURE OF SARS-COV-2 MAIN PROTEASE IN COMPLEX WITH MAT-POS-8695A11F-1 (MPRO-P1701)

> <s_pdb_PDB_ID>
7GL6

> <s_m_Source_File>
7gl6.pdb.gz

> <s_user_Compound_ID>
MAT-POS-8695a11f-1

> <s_user_Monomer-Dimer>
Dimer

> <s_user_xcode>
Mpro-P1701

$$$$
