7GL7_ligand
                    3D
 Schrodinger Suite 2021-2.
 51 54  0  0  1  0            999 V2000
    8.5177   -1.2510   21.2551 N   0  0  0  0  0  0
    9.3372   -2.4367   19.2695 C   0  0  0  0  0  0
    8.3152   -1.6665   19.9171 C   0  0  0  0  0  0
    7.9624   -1.8199   22.3549 C   0  0  0  0  0  0
    8.3658   -1.1910   23.7249 C   0  0  2  0  0  0
    9.6121   -2.0133   24.1163 C   0  0  0  0  0  0
    7.3149   -2.1478   25.8156 C   0  0  0  0  0  0
    5.0304   -0.6783   25.4656 C   0  0  0  0  0  0
    7.2240   -1.2871   24.7172 C   0  0  0  0  0  0
    7.1236   -1.4668   19.2196 C   0  0  0  0  0  0
   10.0555   -3.7143   17.3072 C   0  0  0  0  0  0
    3.5447    0.1962   25.1997 Cl  0  0  0  0  0  0
    5.1245   -1.5344   26.5484 C   0  0  0  0  0  0
    6.2815   -2.2701   26.7338 C   0  0  0  0  0  0
    6.0622   -0.5337   24.5555 C   0  0  0  0  0  0
    8.4142   -2.9366   26.0466 O   0  0  0  0  0  0
    9.6452   -2.3488   25.5948 C   0  0  0  0  0  0
    8.5917    0.1718   23.3509 O   0  0  0  0  0  0
    9.2353    1.0136   24.3128 C   0  0  0  0  0  0
    7.2181   -2.7915   22.3077 O   0  0  0  0  0  0
    6.8515   -1.9612   18.0028 N   0  0  0  0  0  0
    7.7911   -2.6886   17.4102 C   0  0  0  0  0  0
    9.0594   -2.9675   17.9765 C   0  0  0  0  0  0
   10.6183   -2.6841   19.8346 C   0  0  0  0  0  0
   11.5662   -3.3977   19.1561 C   0  0  0  0  0  0
   11.2815   -3.8957   17.8904 C   0  0  0  0  0  0
   12.5469   -4.6982   16.9600 S   0  0  0  0  0  0
   11.9577   -5.2282   15.7670 O   0  0  0  0  0  0
   13.6526   -3.7986   16.8535 O   0  0  0  0  0  0
   13.0558   -5.9613   17.8177 N   0  0  3  0  0  0
   12.1660   -7.1035   18.0001 C   0  0  0  0  0  0
    9.1212   -0.4660   21.4543 H   0  0  0  0  0  0
   10.5112   -1.4573   23.8507 H   0  0  0  0  0  0
    9.6352   -2.9351   23.5350 H   0  0  0  0  0  0
    6.3339   -0.8747   19.6581 H   0  0  0  0  0  0
    9.8496   -4.1414   16.3368 H   0  0  0  0  0  0
    4.2993   -1.6238   27.2395 H   0  0  0  0  0  0
    6.3866   -2.9331   27.5799 H   0  0  0  0  0  0
    5.9625    0.1570   23.7312 H   0  0  0  0  0  0
    9.8462   -1.4434   26.1675 H   0  0  0  0  0  0
   10.4686   -3.0352   25.7924 H   0  0  0  0  0  0
    9.3447    2.0175   23.9023 H   0  0  0  0  0  0
    8.6326    1.0563   25.2200 H   0  0  0  0  0  0
   10.2194    0.6092   24.5496 H   0  0  0  0  0  0
    7.6109   -3.1106   16.4325 H   0  0  0  0  0  0
   10.8571   -2.3056   20.8175 H   0  0  0  0  0  0
   12.5333   -3.5732   19.6038 H   0  0  0  0  0  0
   13.9812   -5.9572   18.2222 H   0  0  0  0  0  0
   12.6668   -7.8625   18.6012 H   0  0  0  0  0  0
   11.2575   -6.7796   18.5080 H   0  0  0  0  0  0
   11.9081   -7.5228   17.0276 H   0  0  0  0  0  0
  1  3  1  0  0  0
  1  4  1  0  0  0
  1 32  1  0  0  0
  2  3  1  0  0  0
  2 23  1  0  0  0
  2 24  2  0  0  0
  3 10  2  0  0  0
  4  5  1  0  0  0
  4 20  2  0  0  0
  5  6  1  0  0  0
  5  9  1  0  0  0
  5 18  1  0  0  0
  6 17  1  0  0  0
  6 33  1  0  0  0
  6 34  1  0  0  0
  7  9  1  0  0  0
  7 14  2  0  0  0
  7 16  1  0  0  0
  8 12  1  0  0  0
  8 13  2  0  0  0
  8 15  1  0  0  0
  9 15  2  0  0  0
 10 21  1  0  0  0
 10 35  1  0  0  0
 11 23  2  0  0  0
 11 26  1  0  0  0
 11 36  1  0  0  0
 13 14  1  0  0  0
 13 37  1  0  0  0
 14 38  1  0  0  0
 15 39  1  0  0  0
 16 17  1  0  0  0
 17 40  1  0  0  0
 17 41  1  0  0  0
 18 19  1  0  0  0
 19 42  1  0  0  0
 19 43  1  0  0  0
 19 44  1  0  0  0
 21 22  2  0  0  0
 22 23  1  0  0  0
 22 45  1  0  0  0
 24 25  1  0  0  0
 24 46  1  0  0  0
 25 26  2  0  0  0
 25 47  1  0  0  0
 26 27  1  0  0  0
 27 28  2  0  0  0
 27 29  2  0  0  0
 27 30  1  0  0  0
 30 31  1  0  0  0
 30 48  1  0  0  0
 31 49  1  0  0  0
 31 50  1  0  0  0
 31 51  1  0  0  0
M  END
> <s_m_entry_id>
1603

> <s_m_entry_name>
155_ligand

> <s_pdb_PDB_TITLE>
GROUP DEPOSITION SARS-COV-2 MAIN PROTEASE IN COMPLEX WITH INHIBITORS FROM THE COVID MOONSHOT -- CRYSTAL STRUCTURE OF SARS-COV-2 MAIN PROTEASE IN COMPLEX WITH EDJ-MED-6BF93AA8-1 (MPRO-P1783)

> <s_pdb_PDB_ID>
7GL7

> <s_m_Source_File>
7gl7.pdb.gz

> <s_user_Compound_ID>
EDJ-MED-6bf93aa8-1

> <s_user_Monomer-Dimer>
Dimer

> <s_user_xcode>
Mpro-P1783

$$$$
