7GL8_ligand
                    3D
 Schrodinger Suite 2021-2.
 54 58  0  0  1  0            999 V2000
    8.6442   -1.0699   21.0140 N   0  0  0  0  0  0
    8.7804   -8.3303   22.9991 N   0  0  0  0  0  0
    8.6893   -3.1396   25.4069 C   0  0  0  0  0  0
    9.7666   -1.5124   23.8869 C   0  0  0  0  0  0
    8.4320   -0.9087   23.4425 C   0  0  1  0  0  0
    8.0474   -1.5818   22.1231 C   0  0  0  0  0  0
    8.5023   -1.5255   19.6799 C   0  0  0  0  0  0
    8.0514   -2.6554   17.1995 C   0  0  0  0  0  0
   11.4911   -3.9284   17.8748 C   0  0  0  0  0  0
   10.7844   -2.5851   19.7271 C   0  0  0  0  0  0
    7.3479   -1.1768   24.4791 C   0  0  0  0  0  0
    9.9747   -6.2954   21.8923 C   0  0  0  0  0  0
   10.3505   -6.5103   20.4433 C   0  0  0  0  0  0
   11.4134   -6.4990   21.4733 C   0  0  0  0  0  0
    9.3018   -7.4287   22.5405 C   0  0  0  0  0  0
    9.4989   -4.9184   22.3392 C   0  0  0  0  0  0
   10.4140   -4.1624   23.6680 S   0  0  0  0  0  0
   11.6127   -3.5951   23.1365 O   0  0  0  0  0  0
   10.5057   -5.1131   24.7301 O   0  0  0  0  0  0
    9.5002   -2.9282   24.2029 N   0  0  1  0  0  0
    7.4453   -2.2886   25.3361 C   0  0  0  0  0  0
    6.3759   -2.6035   26.1713 C   0  0  0  0  0  0
    5.2306   -1.8312   26.1883 C   0  0  0  0  0  0
    6.2018   -0.3790   24.5270 C   0  0  0  0  0  0
    5.1623   -0.7233   25.3754 C   0  0  0  0  0  0
    3.7114    0.2409   25.3788 Cl  0  0  0  0  0  0
    7.2850   -2.5408   22.0851 O   0  0  0  0  0  0
    9.5323   -2.3379   19.1051 C   0  0  0  0  0  0
   11.7309   -3.3620   19.1199 C   0  0  0  0  0  0
   10.3008   -3.7238   17.2355 C   0  0  0  0  0  0
    9.2923   -2.9240   17.8289 C   0  0  0  0  0  0
    7.1060   -1.8883   17.7193 N   0  0  0  0  0  0
    7.3402   -1.3456   18.9239 C   0  0  0  0  0  0
    9.2661   -0.2782   21.0950 H   0  0  0  0  0  0
    9.2686   -2.8633   26.2879 H   0  0  0  0  0  0
    8.4071   -4.1902   25.4748 H   0  0  0  0  0  0
   10.1151   -1.0005   24.7839 H   0  0  0  0  0  0
   10.4823   -1.4526   23.0668 H   0  0  0  0  0  0
    8.5431    0.1651   23.2918 H   0  0  0  0  0  0
    7.8306   -3.0877   16.2347 H   0  0  0  0  0  0
   12.2487   -4.5368   17.4033 H   0  0  0  0  0  0
   11.0007   -2.1568   20.6947 H   0  0  0  0  0  0
   10.4071   -5.4711   20.1190 H   0  0  0  0  0  0
   10.1823   -7.5850   20.3744 H   0  0  0  0  0  0
   11.4995   -7.5710   21.6508 H   0  0  0  0  0  0
   11.7243   -5.4571   21.3954 H   0  0  0  0  0  0
    8.4456   -4.9739   22.6143 H   0  0  0  0  0  0
    9.4890   -4.2457   21.4814 H   0  0  0  0  0  0
    6.4332   -3.4646   26.8207 H   0  0  0  0  0  0
    4.4070   -2.1007   26.8330 H   0  0  0  0  0  0
    6.1299    0.5008   23.9046 H   0  0  0  0  0  0
   12.6734   -3.5336   19.6187 H   0  0  0  0  0  0
   10.1224   -4.1732   16.2697 H   0  0  0  0  0  0
    6.5398   -0.7270   19.3026 H   0  0  0  0  0  0
  1  6  1  0  0  0
  1  7  1  0  0  0
  1 34  1  0  0  0
  2 15  3  0  0  0
  3 20  1  0  0  0
  3 21  1  0  0  0
  3 35  1  0  0  0
  3 36  1  0  0  0
  4  5  1  0  0  0
  4 20  1  0  0  0
  4 37  1  0  0  0
  4 38  1  0  0  0
  5  6  1  0  0  0
  5 11  1  0  0  0
  5 39  1  0  0  0
  6 27  2  0  0  0
  7 28  1  0  0  0
  7 33  2  0  0  0
  8 31  1  0  0  0
  8 32  2  0  0  0
  8 40  1  0  0  0
  9 29  1  0  0  0
  9 30  2  0  0  0
  9 41  1  0  0  0
 10 28  1  0  0  0
 10 29  2  0  0  0
 10 42  1  0  0  0
 11 21  1  0  0  0
 11 24  2  0  0  0
 12 13  1  0  0  0
 12 14  1  0  0  0
 12 15  1  0  0  0
 12 16  1  0  0  0
 13 14  1  0  0  0
 13 43  1  0  0  0
 13 44  1  0  0  0
 14 45  1  0  0  0
 14 46  1  0  0  0
 16 17  1  0  0  0
 16 47  1  0  0  0
 16 48  1  0  0  0
 17 18  2  0  0  0
 17 19  2  0  0  0
 17 20  1  0  0  0
 21 22  2  0  0  0
 22 23  1  0  0  0
 22 49  1  0  0  0
 23 25  2  0  0  0
 23 50  1  0  0  0
 24 25  1  0  0  0
 24 51  1  0  0  0
 25 26  1  0  0  0
 28 31  2  0  0  0
 29 52  1  0  0  0
 30 31  1  0  0  0
 30 53  1  0  0  0
 32 33  1  0  0  0
 33 54  1  0  0  0
M  END
> <s_m_entry_id>
1605

> <s_m_entry_name>
157_ligand

> <s_pdb_PDB_TITLE>
GROUP DEPOSITION SARS-COV-2 MAIN PROTEASE IN COMPLEX WITH INHIBITORS FROM THE COVID MOONSHOT -- CRYSTAL STRUCTURE OF SARS-COV-2 MAIN PROTEASE IN COMPLEX WITH MAT-POS-DC2604C4-1 (MPRO-P1788)

> <s_pdb_PDB_ID>
7GL8

> <s_m_Source_File>
7gl8.pdb.gz

> <s_user_Compound_ID>
MAT-POS-dc2604c4-1

> <s_user_Monomer-Dimer>
Dimer

> <s_user_xcode>
Mpro-P1788

$$$$
