7GL9_ligand
                    3D
 Schrodinger Suite 2021-2.
 42 46  0  0  1  0            999 V2000
    6.9888   -1.9932   17.4441 N   0  0  0  0  0  0
    9.8322   -2.6068   24.3670 C   0  0  0  0  0  0
   10.0672   -1.4650   23.4025 C   0  0  0  0  0  0
    8.7411   -0.7883   22.9786 C   0  0  1  0  0  0
    9.0447    0.5942   22.3619 C   0  0  0  0  0  0
    9.1312    0.3480   20.8812 C   0  0  0  0  0  0
    8.4289   -1.4575   19.3043 C   0  0  0  0  0  0
    9.1115   -3.1458   17.6896 C   0  0  0  0  0  0
   11.2148   -4.3212   17.9110 C   0  0  0  0  0  0
   10.6335   -2.6527   19.5267 C   0  0  0  0  0  0
    6.5251   -0.0702   24.0255 C   0  0  0  0  0  0
    7.5400   -2.6021   21.8483 O   0  0  0  0  0  0
    8.1824   -1.5718   21.7920 C   0  0  0  0  0  0
    9.1581   -2.1483   25.5473 O   0  0  0  0  0  0
    7.7369   -0.7519   24.1378 C   0  0  0  0  0  0
    7.9896   -1.4624   25.3209 C   0  0  0  0  0  0
    7.0645   -1.5101   26.3494 C   0  0  0  0  0  0
    5.8579   -0.8508   26.2099 C   0  0  0  0  0  0
    5.6050   -0.1442   25.0575 C   0  0  0  0  0  0
    4.0766    0.6725   24.8882 Cl  0  0  0  0  0  0
    8.5454   -0.8914   20.6231 N   0  0  0  0  0  0
    9.6540    1.0548   20.0302 O   0  0  0  0  0  0
    9.4014   -2.4034   18.8677 C   0  0  0  0  0  0
   11.5100   -3.5895   19.0530 C   0  0  0  0  0  0
   10.0479   -4.1101   17.2335 C   0  0  0  0  0  0
    7.8869   -2.8785   17.0282 C   0  0  0  0  0  0
    7.2643   -1.3080   18.5600 C   0  0  0  0  0  0
   10.7886   -3.0502   24.6444 H   0  0  0  0  0  0
    9.2307   -3.3747   23.8807 H   0  0  0  0  0  0
   10.5830   -1.8381   22.5176 H   0  0  0  0  0  0
   10.7192   -0.7257   23.8677 H   0  0  0  0  0  0
   10.0091    0.9485   22.7262 H   0  0  0  0  0  0
    8.2160    1.2716   22.5678 H   0  0  0  0  0  0
   11.9106   -5.0649   17.5512 H   0  0  0  0  0  0
   10.8915   -2.0986   20.4171 H   0  0  0  0  0  0
    6.3115    0.5089   23.1392 H   0  0  0  0  0  0
    7.2883   -2.0595   27.2519 H   0  0  0  0  0  0
    5.1245   -0.8936   27.0016 H   0  0  0  0  0  0
   12.4396   -3.7574   19.5766 H   0  0  0  0  0  0
    9.8407   -4.6849   16.3430 H   0  0  0  0  0  0
    7.7055   -3.4508   16.1304 H   0  0  0  0  0  0
    6.5581   -0.5828   18.9366 H   0  0  0  0  0  0
  1 26  2  0  0  0
  1 27  1  0  0  0
  2  3  1  0  0  0
  2 14  1  0  0  0
  2 28  1  0  0  0
  2 29  1  0  0  0
  3  4  1  0  0  0
  3 30  1  0  0  0
  3 31  1  0  0  0
  4  5  1  0  0  0
  4 13  1  0  0  0
  4 15  1  0  0  0
  5  6  1  0  0  0
  5 32  1  0  0  0
  5 33  1  0  0  0
  6 21  1  0  0  0
  6 22  2  0  0  0
  7 21  1  0  0  0
  7 23  1  0  0  0
  7 27  2  0  0  0
  8 23  1  0  0  0
  8 25  2  0  0  0
  8 26  1  0  0  0
  9 24  2  0  0  0
  9 25  1  0  0  0
  9 34  1  0  0  0
 10 23  2  0  0  0
 10 24  1  0  0  0
 10 35  1  0  0  0
 11 15  1  0  0  0
 11 19  2  0  0  0
 11 36  1  0  0  0
 12 13  2  0  0  0
 13 21  1  0  0  0
 14 16  1  0  0  0
 15 16  2  0  0  0
 16 17  1  0  0  0
 17 18  2  0  0  0
 17 37  1  0  0  0
 18 19  1  0  0  0
 18 38  1  0  0  0
 19 20  1  0  0  0
 24 39  1  0  0  0
 25 40  1  0  0  0
 26 41  1  0  0  0
 27 42  1  0  0  0
M  END
> <s_m_entry_id>
1607

> <s_m_entry_name>
159_ligand

> <s_pdb_PDB_TITLE>
GROUP DEPOSITION SARS-COV-2 MAIN PROTEASE IN COMPLEX WITH INHIBITORS FROM THE COVID MOONSHOT -- CRYSTAL STRUCTURE OF SARS-COV-2 MAIN PROTEASE IN COMPLEX WITH VLA-UCB-50C39AE8-2 (MPRO-P1800)

> <s_pdb_PDB_ID>
7GL9

> <s_m_Source_File>
7gl9.pdb.gz

> <s_user_Compound_ID>
VLA-UCB-50c39ae8-2

> <s_user_Monomer-Dimer>
Dimer

> <s_user_xcode>
Mpro-P1800

$$$$
