7GLA_ligand
                    3D
 Schrodinger Suite 2021-2.
 50 53  0  0  1  0            999 V2000
    8.5421   -0.9917   20.8958 N   0  0  0  0  0  0
   11.0877   -4.4374   18.1319 C   0  0  0  0  0  0
   10.0408   -4.0274   17.3590 C   0  0  0  0  0  0
    9.1254   -3.0569   17.8342 C   0  0  0  0  0  0
    7.9922   -2.6298   17.0949 C   0  0  0  0  0  0
    7.3089   -1.2203   18.7546 C   0  0  0  0  0  0
    8.0721   -1.4875   22.0705 C   0  0  0  0  0  0
    9.9569   -2.4407   24.3424 C   0  0  0  0  0  0
    6.8001   -2.2364   26.3673 C   0  0  0  0  0  0
    5.3065   -0.6453   25.4075 C   0  0  0  0  0  0
    9.3267   -2.4970   19.1310 C   0  0  0  0  0  0
   10.4301   -2.9568   19.8957 C   0  0  0  0  0  0
    3.7440    0.1283   25.3799 Cl  0  0  0  0  0  0
    5.5680   -1.6042   26.3649 C   0  0  0  0  0  0
    6.2390   -0.3075   24.4455 C   0  0  0  0  0  0
    7.4723   -0.9595   24.4147 C   0  0  0  0  0  0
    7.7577   -1.9249   25.3983 C   0  0  0  0  0  0
    8.9793   -2.5764   25.4173 N   0  0  0  0  0  0
    9.9088   -1.0426   23.7577 C   0  0  0  0  0  0
    8.4751   -0.6834   23.3095 C   0  0  1  0  0  0
    7.3982   -2.5163   22.1501 O   0  0  0  0  0  0
    8.3764   -1.5346   19.5986 C   0  0  0  0  0  0
    7.1048   -1.7472   17.5358 N   0  0  0  0  0  0
   11.2959   -3.9315   19.4169 C   0  0  0  0  0  0
   12.3817   -4.5174   20.3238 C   0  0  0  0  0  0
   12.6203   -3.6684   21.4668 O   0  0  0  0  0  0
   13.7080   -4.6448   19.5793 C   0  0  0  0  0  0
   11.9505   -5.8736   20.8702 C   0  0  0  0  0  0
    9.0801   -0.1369   20.8876 H   0  0  0  0  0  0
   11.7828   -5.1724   17.7537 H   0  0  0  0  0  0
    9.9025   -4.4437   16.3720 H   0  0  0  0  0  0
    7.8102   -3.0278   16.1075 H   0  0  0  0  0  0
    6.5662   -0.5016   19.0680 H   0  0  0  0  0  0
    9.7403   -3.1688   23.5606 H   0  0  0  0  0  0
   10.9555   -2.6367   24.7331 H   0  0  0  0  0  0
    7.0262   -2.9757   27.1216 H   0  0  0  0  0  0
   10.6145   -2.5474   20.8780 H   0  0  0  0  0  0
    4.8264   -1.8638   27.1059 H   0  0  0  0  0  0
    6.0126    0.4595   23.7196 H   0  0  0  0  0  0
    9.2217   -3.1725   26.1958 H   0  0  0  0  0  0
   10.5819   -0.9835   22.9024 H   0  0  0  0  0  0
   10.2459   -0.3246   24.5055 H   0  0  0  0  0  0
    8.4412    0.3780   23.0637 H   0  0  0  0  0  0
   13.3035   -4.0573   22.0178 H   0  0  0  0  0  0
   14.4612   -5.0635   20.2469 H   0  0  0  0  0  0
   13.5806   -5.3017   18.7188 H   0  0  0  0  0  0
   14.0308   -3.6606   19.2399 H   0  0  0  0  0  0
   12.7354   -6.2735   21.5122 H   0  0  0  0  0  0
   11.0332   -5.7582   21.4475 H   0  0  0  0  0  0
   11.7742   -6.5601   20.0421 H   0  0  0  0  0  0
  1  7  1  0  0  0
  1 22  1  0  0  0
  1 29  1  0  0  0
  2  3  1  0  0  0
  2 24  2  0  0  0
  2 30  1  0  0  0
  3  4  2  0  0  0
  3 31  1  0  0  0
  4  5  1  0  0  0
  4 11  1  0  0  0
  5 23  2  0  0  0
  5 32  1  0  0  0
  6 22  2  0  0  0
  6 23  1  0  0  0
  6 33  1  0  0  0
  7 20  1  0  0  0
  7 21  2  0  0  0
  8 18  1  0  0  0
  8 19  1  0  0  0
  8 34  1  0  0  0
  8 35  1  0  0  0
  9 14  1  0  0  0
  9 17  2  0  0  0
  9 36  1  0  0  0
 10 13  1  0  0  0
 10 14  2  0  0  0
 10 15  1  0  0  0
 11 12  2  0  0  0
 11 22  1  0  0  0
 12 24  1  0  0  0
 12 37  1  0  0  0
 14 38  1  0  0  0
 15 16  2  0  0  0
 15 39  1  0  0  0
 16 17  1  0  0  0
 16 20  1  0  0  0
 17 18  1  0  0  0
 18 40  1  0  0  0
 19 20  1  0  0  0
 19 41  1  0  0  0
 19 42  1  0  0  0
 20 43  1  0  0  0
 24 25  1  0  0  0
 25 26  1  0  0  0
 25 27  1  0  0  0
 25 28  1  0  0  0
 26 44  1  0  0  0
 27 45  1  0  0  0
 27 46  1  0  0  0
 27 47  1  0  0  0
 28 48  1  0  0  0
 28 49  1  0  0  0
 28 50  1  0  0  0
M  END
> <s_m_entry_id>
1609

> <s_m_entry_name>
161_ligand

> <s_pdb_PDB_TITLE>
GROUP DEPOSITION SARS-COV-2 MAIN PROTEASE IN COMPLEX WITH INHIBITORS FROM THE COVID MOONSHOT -- CRYSTAL STRUCTURE OF SARS-COV-2 MAIN PROTEASE IN COMPLEX WITH MAT-POS-86C60949-2 (MPRO-P1812)

> <s_pdb_PDB_ID>
7GLA

> <s_m_Source_File>
7gla.pdb.gz

> <s_user_Compound_ID>
MAT-POS-86c60949-2

> <s_user_Monomer-Dimer>
Dimer

> <s_user_xcode>
Mpro-P1812

$$$$
