7GLB_ligand
                    3D
 Schrodinger Suite 2021-2.
 49 52  0  0  1  0            999 V2000
    9.5497   -3.0439   24.3480 N   0  0  0  0  0  0
    7.0782   -1.8338   17.6206 N   0  0  0  0  0  0
    8.4580   -1.0497   23.4000 C   0  0  1  0  0  0
    8.0758   -1.7392   22.0874 C   0  0  0  0  0  0
    8.4189   -1.5922   19.6321 C   0  0  0  0  0  0
    7.3057   -1.3169   18.8362 C   0  0  0  0  0  0
    7.9864   -2.6671   17.1284 C   0  0  0  0  0  0
   10.1466   -3.9077   17.2440 C   0  0  0  0  0  0
   10.6260   -2.7987   19.7507 C   0  0  0  0  0  0
    7.3556   -1.2955   24.4098 C   0  0  0  0  0  0
    5.2089   -0.7176   25.3207 C   0  0  0  0  0  0
    7.3319   -2.4784   25.1596 C   0  0  0  0  0  0
    8.4407   -3.4482   25.0639 C   0  0  0  0  0  0
    8.3346   -4.5794   25.4991 O   0  0  0  0  0  0
   10.7418   -3.8723   24.3478 C   0  0  0  0  0  0
   10.8521   -4.8704   23.2067 C   0  0  0  0  0  0
   11.9325   -5.4005   22.9506 O   0  0  0  0  0  0
    9.7492   -5.1295   22.5109 N   0  0  0  0  0  0
    9.7492   -6.0076   21.3559 C   0  0  0  0  0  0
    6.2167   -2.7836   25.9458 C   0  0  0  0  0  0
    5.1541   -1.9011   26.0273 C   0  0  0  0  0  0
    3.8483    0.3710   25.3767 Cl  0  0  0  0  0  0
    6.2939   -0.3973   24.5254 C   0  0  0  0  0  0
    9.7633   -1.6612   23.9125 C   0  0  0  0  0  0
    7.4185   -2.7808   22.0627 O   0  0  0  0  0  0
    8.5595   -1.1464   20.9688 N   0  0  0  0  0  0
    9.4100   -2.4747   19.0905 C   0  0  0  0  0  0
   11.5440   -3.6289   19.1683 C   0  0  0  0  0  0
   11.3012   -4.1886   17.9196 C   0  0  0  0  0  0
    9.1763   -3.0356   17.8026 C   0  0  0  0  0  0
    8.5847    0.0206   23.2374 H   0  0  0  0  0  0
    6.5964   -0.6285   19.2715 H   0  0  0  0  0  0
    7.8407   -3.1108   16.1546 H   0  0  0  0  0  0
    9.9661   -4.3509   16.2758 H   0  0  0  0  0  0
   10.8365   -2.3876   20.7270 H   0  0  0  0  0  0
   10.8118   -4.4024   25.2977 H   0  0  0  0  0  0
   11.6245   -3.2328   24.3529 H   0  0  0  0  0  0
    8.8712   -4.7094   22.7810 H   0  0  0  0  0  0
    8.7406   -6.0714   20.9473 H   0  0  0  0  0  0
   10.4237   -5.6108   20.5970 H   0  0  0  0  0  0
   10.0834   -7.0014   21.6544 H   0  0  0  0  0  0
    6.1809   -3.7132   26.4946 H   0  0  0  0  0  0
    4.2898   -2.1285   26.6337 H   0  0  0  0  0  0
    6.3220    0.5432   23.9950 H   0  0  0  0  0  0
   10.5097   -1.6420   23.1182 H   0  0  0  0  0  0
   10.1368   -1.0709   24.7492 H   0  0  0  0  0  0
    9.0867   -0.2879   21.0398 H   0  0  0  0  0  0
   12.4683   -3.8553   19.6792 H   0  0  0  0  0  0
   12.0346   -4.8507   17.4835 H   0  0  0  0  0  0
  1 13  1  0  0  0
  1 15  1  0  0  0
  1 24  1  0  0  0
  2  6  1  0  0  0
  2  7  2  0  0  0
  3  4  1  0  0  0
  3 10  1  0  0  0
  3 24  1  0  0  0
  3 31  1  0  0  0
  4 25  2  0  0  0
  4 26  1  0  0  0
  5  6  2  0  0  0
  5 26  1  0  0  0
  5 27  1  0  0  0
  6 32  1  0  0  0
  7 30  1  0  0  0
  7 33  1  0  0  0
  8 29  1  0  0  0
  8 30  2  0  0  0
  8 34  1  0  0  0
  9 27  2  0  0  0
  9 28  1  0  0  0
  9 35  1  0  0  0
 10 12  1  0  0  0
 10 23  2  0  0  0
 11 21  2  0  0  0
 11 22  1  0  0  0
 11 23  1  0  0  0
 12 13  1  0  0  0
 12 20  2  0  0  0
 13 14  2  0  0  0
 15 16  1  0  0  0
 15 36  1  0  0  0
 15 37  1  0  0  0
 16 17  2  0  0  0
 16 18  1  0  0  0
 18 19  1  0  0  0
 18 38  1  0  0  0
 19 39  1  0  0  0
 19 40  1  0  0  0
 19 41  1  0  0  0
 20 21  1  0  0  0
 20 42  1  0  0  0
 21 43  1  0  0  0
 23 44  1  0  0  0
 24 45  1  0  0  0
 24 46  1  0  0  0
 26 47  1  0  0  0
 27 30  1  0  0  0
 28 29  2  0  0  0
 28 48  1  0  0  0
 29 49  1  0  0  0
M  END
> <s_m_entry_id>
1611

> <s_m_entry_name>
163_ligand

> <s_pdb_PDB_TITLE>
GROUP DEPOSITION SARS-COV-2 MAIN PROTEASE IN COMPLEX WITH INHIBITORS FROM THE COVID MOONSHOT -- CRYSTAL STRUCTURE OF SARS-COV-2 MAIN PROTEASE IN COMPLEX WITH EDJ-MED-015FB6B4-2 (MPRO-P1835)

> <s_pdb_PDB_ID>
7GLB

> <s_m_Source_File>
7glb.pdb.gz

> <s_user_Compound_ID>
EDJ-MED-015fb6b4-2

> <s_user_Monomer-Dimer>
Dimer

> <s_user_xcode>
Mpro-P1835

$$$$
