7GLC_ligand
                    3D
 Schrodinger Suite 2021-2.
 43 46  0  0  1  0            999 V2000
    6.9362   -1.6120   18.1114 N   0  0  0  0  0  0
    7.2769   -2.1073   26.0864 C   0  0  0  0  0  0
    6.1781   -2.4554   26.8584 C   0  0  0  0  0  0
    4.9459   -1.8958   26.5717 C   0  0  0  0  0  0
    4.8437   -0.9714   25.5479 C   0  0  0  0  0  0
    5.9298   -0.6175   24.7714 C   0  0  0  0  0  0
    7.9007   -1.8221   22.6241 C   0  0  0  0  0  0
    7.8611   -2.3571   17.5216 C   0  0  0  0  0  0
   10.0444   -3.5558   17.4828 C   0  0  0  0  0  0
   11.4382   -3.4721   19.4430 C   0  0  0  0  0  0
   12.1494   -4.5664   17.4941 F   0  0  0  0  0  0
   11.1887   -3.8582   18.1473 C   0  0  0  0  0  0
   10.4982   -2.7538   20.1181 C   0  0  0  0  0  0
    9.2769   -2.3842   19.5008 C   0  0  0  0  0  0
    9.0581   -2.7853   18.1485 C   0  0  0  0  0  0
    7.1440   -1.2594   19.3892 C   0  0  0  0  0  0
    8.2631   -1.6065   20.1485 C   0  0  0  0  0  0
    8.4407   -1.2569   21.5101 N   0  0  0  0  0  0
    7.1623   -2.7996   22.6291 O   0  0  0  0  0  0
    8.2623   -1.1096   23.9798 C   0  0  1  0  0  0
    8.4273    0.2441   23.5478 O   0  0  0  0  0  0
    8.7705    1.2085   24.5494 C   0  0  0  0  0  0
    7.1702   -1.1938   25.0259 C   0  0  0  0  0  0
    3.3127   -0.1965   25.2486 Cl  0  0  0  0  0  0
    8.4615   -2.7165   26.4194 O   0  0  0  0  0  0
    9.3202   -2.9899   25.2843 C   0  0  0  0  0  0
    9.5808   -1.7453   24.4547 C   0  0  0  0  0  0
    6.2905   -3.1560   27.6727 H   0  0  0  0  0  0
    4.0764   -2.1818   27.1450 H   0  0  0  0  0  0
    5.8122    0.1015   23.9741 H   0  0  0  0  0  0
    7.7261   -2.6761   16.4986 H   0  0  0  0  0  0
    9.9012   -3.9009   16.4695 H   0  0  0  0  0  0
   12.3720   -3.7385   19.9156 H   0  0  0  0  0  0
   10.6774   -2.4565   21.1409 H   0  0  0  0  0  0
    6.4123   -0.6594   19.9097 H   0  0  0  0  0  0
    9.0678   -0.4699   21.5963 H   0  0  0  0  0  0
    8.8653    2.1924   24.0899 H   0  0  0  0  0  0
    7.9900    1.2369   25.3098 H   0  0  0  0  0  0
    9.7178    0.9312   25.0120 H   0  0  0  0  0  0
    8.8602   -3.7537   24.6574 H   0  0  0  0  0  0
   10.2685   -3.3959   25.6365 H   0  0  0  0  0  0
   10.1384   -1.0225   25.0503 H   0  0  0  0  0  0
   10.1899   -2.0070   23.5894 H   0  0  0  0  0  0
  1  8  2  0  0  0
  1 16  1  0  0  0
  2  3  1  0  0  0
  2 23  2  0  0  0
  2 25  1  0  0  0
  3  4  2  0  0  0
  3 28  1  0  0  0
  4  5  1  0  0  0
  4 29  1  0  0  0
  5  6  2  0  0  0
  5 24  1  0  0  0
  6 23  1  0  0  0
  6 30  1  0  0  0
  7 18  1  0  0  0
  7 19  2  0  0  0
  7 20  1  0  0  0
  8 15  1  0  0  0
  8 31  1  0  0  0
  9 12  1  0  0  0
  9 15  2  0  0  0
  9 32  1  0  0  0
 10 12  2  0  0  0
 10 13  1  0  0  0
 10 33  1  0  0  0
 11 12  1  0  0  0
 13 14  2  0  0  0
 13 34  1  0  0  0
 14 15  1  0  0  0
 14 17  1  0  0  0
 16 17  2  0  0  0
 16 35  1  0  0  0
 17 18  1  0  0  0
 18 36  1  0  0  0
 20 21  1  0  0  0
 20 23  1  0  0  0
 20 27  1  0  0  0
 21 22  1  0  0  0
 22 37  1  0  0  0
 22 38  1  0  0  0
 22 39  1  0  0  0
 25 26  1  0  0  0
 26 27  1  0  0  0
 26 40  1  0  0  0
 26 41  1  0  0  0
 27 42  1  0  0  0
 27 43  1  0  0  0
M  END
> <s_m_entry_id>
1613

> <s_m_entry_name>
165_ligand

> <s_pdb_PDB_TITLE>
GROUP DEPOSITION SARS-COV-2 MAIN PROTEASE IN COMPLEX WITH INHIBITORS FROM THE COVID MOONSHOT -- CRYSTAL STRUCTURE OF SARS-COV-2 MAIN PROTEASE IN COMPLEX WITH ALP-POS-6F6AE286-3 (MPRO-P1858)

> <s_pdb_PDB_ID>
7GLC

> <s_m_Source_File>
7glc.pdb.gz

> <s_user_Compound_ID>
ALP-POS-6f6ae286-3

> <s_user_Monomer-Dimer>
Dimer

> <s_user_xcode>
Mpro-P1858

$$$$
