7GLD_ligand
                    3D
 Schrodinger Suite 2021-2.
 51 54  0  0  1  0            999 V2000
   10.2586   -5.0489   23.3420 N   0  0  0  0  0  0
    8.5167   -0.8679   20.8316 N   0  0  0  0  0  0
    9.1656   -2.4908   25.3410 C   0  0  0  0  0  0
   11.2138   -2.9606   24.1144 C   0  0  0  0  0  0
   11.3433   -4.2740   23.3586 C   0  0  0  0  0  0
    9.8308   -5.7243   22.1263 C   0  0  0  0  0  0
    9.2944   -7.0693   22.4063 C   0  0  0  0  0  0
    8.4702   -0.5351   23.2417 C   0  0  2  0  0  0
    7.2014   -1.2624   18.7660 C   0  0  0  0  0  0
    9.1475   -2.9266   17.7809 C   0  0  0  0  0  0
   11.2871   -4.0363   17.9626 C   0  0  0  0  0  0
    9.3721   -2.2875   19.0345 C   0  0  0  0  0  0
    7.4996   -0.8292   24.3748 C   0  0  0  0  0  0
    6.2518   -0.2018   24.4230 C   0  0  0  0  0  0
    7.2946   -2.3142   22.0947 O   0  0  0  0  0  0
    8.0184   -1.3222   22.0079 C   0  0  0  0  0  0
    8.3455   -1.4322   19.5478 C   0  0  0  0  0  0
   10.6020   -2.5344   19.7014 C   0  0  0  0  0  0
   11.5328   -3.3802   19.1663 C   0  0  0  0  0  0
   10.1280   -3.8174   17.2753 C   0  0  0  0  0  0
    7.9370   -2.6375   17.1012 C   0  0  0  0  0  0
    6.9899   -1.8374   17.5736 N   0  0  0  0  0  0
    7.8015   -1.8373   25.3047 C   0  0  0  0  0  0
    6.8213   -2.2424   26.2107 C   0  0  0  0  0  0
    5.5674   -1.6614   26.2129 C   0  0  0  0  0  0
    5.3038   -0.6361   25.3323 C   0  0  0  0  0  0
    3.7299    0.1166   25.3454 Cl  0  0  0  0  0  0
    9.8908   -0.9601   23.6275 C   0  0  0  0  0  0
    9.8829   -2.3583   24.0619 N   0  0  2  0  0  0
   12.3950   -4.5780   22.7996 O   0  0  0  0  0  0
    8.8540   -8.1109   22.5848 N   0  0  0  0  0  0
    9.7161   -5.1764   24.1843 H   0  0  0  0  0  0
    9.0836   -0.0321   20.8123 H   0  0  0  0  0  0
    9.0550   -3.5470   25.5868 H   0  0  0  0  0  0
    9.7603   -2.0445   26.1380 H   0  0  0  0  0  0
   11.9468   -2.2502   23.7321 H   0  0  0  0  0  0
   11.5002   -3.1133   25.1551 H   0  0  0  0  0  0
   10.6743   -5.8058   21.4407 H   0  0  0  0  0  0
    9.0677   -5.1260   21.6284 H   0  0  0  0  0  0
    8.4571    0.5318   23.0183 H   0  0  0  0  0  0
    6.4003   -0.6262   19.1123 H   0  0  0  0  0  0
   12.0170   -4.7257   17.5646 H   0  0  0  0  0  0
    6.0326    0.6166   23.7531 H   0  0  0  0  0  0
   10.8117   -2.0510   20.6442 H   0  0  0  0  0  0
   12.4662   -3.5375   19.6864 H   0  0  0  0  0  0
    9.9610   -4.3294   16.3392 H   0  0  0  0  0  0
    7.7410   -3.0798   16.1356 H   0  0  0  0  0  0
    7.0365   -3.0223   26.9261 H   0  0  0  0  0  0
    4.8108   -2.0127   26.8989 H   0  0  0  0  0  0
   10.2504   -0.3293   24.4405 H   0  0  0  0  0  0
   10.5490   -0.8514   22.7654 H   0  0  0  0  0  0
  1  5  1  0  0  0
  1  6  1  0  0  0
  1 32  1  0  0  0
  2 16  1  0  0  0
  2 17  1  0  0  0
  2 33  1  0  0  0
  3 23  1  0  0  0
  3 29  1  0  0  0
  3 34  1  0  0  0
  3 35  1  0  0  0
  4  5  1  0  0  0
  4 29  1  0  0  0
  4 36  1  0  0  0
  4 37  1  0  0  0
  5 30  2  0  0  0
  6  7  1  0  0  0
  6 38  1  0  0  0
  6 39  1  0  0  0
  7 31  3  0  0  0
  8 13  1  0  0  0
  8 16  1  0  0  0
  8 28  1  0  0  0
  8 40  1  0  0  0
  9 17  2  0  0  0
  9 22  1  0  0  0
  9 41  1  0  0  0
 10 12  1  0  0  0
 10 20  2  0  0  0
 10 21  1  0  0  0
 11 19  2  0  0  0
 11 20  1  0  0  0
 11 42  1  0  0  0
 12 17  1  0  0  0
 12 18  2  0  0  0
 13 14  1  0  0  0
 13 23  2  0  0  0
 14 26  2  0  0  0
 14 43  1  0  0  0
 15 16  2  0  0  0
 18 19  1  0  0  0
 18 44  1  0  0  0
 19 45  1  0  0  0
 20 46  1  0  0  0
 21 22  2  0  0  0
 21 47  1  0  0  0
 23 24  1  0  0  0
 24 25  2  0  0  0
 24 48  1  0  0  0
 25 26  1  0  0  0
 25 49  1  0  0  0
 26 27  1  0  0  0
 28 29  1  0  0  0
 28 50  1  0  0  0
 28 51  1  0  0  0
M  END
> <s_m_entry_id>
1615

> <s_m_entry_name>
167_ligand

> <s_pdb_PDB_TITLE>
GROUP DEPOSITION SARS-COV-2 MAIN PROTEASE IN COMPLEX WITH INHIBITORS FROM THE COVID MOONSHOT -- CRYSTAL STRUCTURE OF SARS-COV-2 MAIN PROTEASE IN COMPLEX WITH MAT-POS-5CD9EA36-15 (MPRO-P1879)

> <s_pdb_PDB_ID>
7GLD

> <s_m_Source_File>
7gld.pdb.gz

> <s_user_Compound_ID>
MAT-POS-5cd9ea36-15

> <s_user_Monomer-Dimer>
Dimer

> <s_user_xcode>
Mpro-P1879

$$$$
