7GLE_ligand
                    3D
 Schrodinger Suite 2021-2.
 54 58  0  0  1  0            999 V2000
   10.6994   -5.0407   23.1594 N   0  0  0  0  0  0
    7.0171   -1.9285   17.5487 N   0  0  0  0  0  0
    9.5150   -2.4939   25.2708 C   0  0  0  0  0  0
   11.5391   -2.9288   24.0115 C   0  0  0  0  0  0
   11.7303   -4.1884   23.1831 C   0  0  0  0  0  0
   10.1091   -5.5373   21.9152 C   0  0  0  0  0  0
    9.5280   -6.8950   21.9058 C   0  0  0  0  0  0
   10.1697   -0.9860   23.5107 C   0  0  0  0  0  0
    8.4650   -1.5076   19.4581 C   0  0  0  0  0  0
    7.9536   -2.7097   17.0252 C   0  0  0  0  0  0
   10.1930   -3.8028   17.0540 C   0  0  0  0  0  0
   10.7593   -2.5389   19.4674 C   0  0  0  0  0  0
    9.4843   -2.3300   18.8785 C   0  0  0  0  0  0
    7.8041   -0.8606   24.3178 C   0  0  0  0  0  0
    7.6981   -2.4965   22.0785 O   0  0  0  0  0  0
    8.3079   -1.4369   21.9457 C   0  0  0  0  0  0
    8.6847   -0.9443   20.7387 N   0  0  0  0  0  0
   11.6865   -3.3407   18.8683 C   0  0  0  0  0  0
   11.3992   -3.9851   17.6704 C   0  0  0  0  0  0
    9.2088   -2.9639   17.6326 C   0  0  0  0  0  0
    7.2805   -1.3558   18.7319 C   0  0  0  0  0  0
    8.7371   -0.5905   23.1477 C   0  0  2  0  0  0
    8.1716   -1.7967   25.2975 C   0  0  0  0  0  0
    7.2530   -2.1371   26.2909 C   0  0  0  0  0  0
    5.9882   -1.5784   26.3177 C   0  0  0  0  0  0
    6.5432   -0.2592   24.3821 C   0  0  0  0  0  0
    5.6539   -0.6395   25.3700 C   0  0  0  0  0  0
    4.0512    0.0412   25.3781 Cl  0  0  0  0  0  0
   10.1872   -2.3769   23.9648 N   0  0  2  0  0  0
   12.7794   -4.3905   22.5731 O   0  0  0  0  0  0
   10.7988   -6.6259   21.1900 C   0  0  0  0  0  0
   10.2953   -5.3686   24.0250 H   0  0  0  0  0  0
    9.3814   -3.5475   25.5165 H   0  0  0  0  0  0
   10.1559   -2.0754   26.0469 H   0  0  0  0  0  0
   12.2503   -2.1701   23.6847 H   0  0  0  0  0  0
   11.8102   -3.1332   25.0473 H   0  0  0  0  0  0
    9.6031   -4.7961   21.2966 H   0  0  0  0  0  0
    8.8341   -6.7789   21.0732 H   0  0  0  0  0  0
    9.9359   -7.2628   22.8473 H   0  0  0  0  0  0
   10.5339   -0.3389   24.3087 H   0  0  0  0  0  0
   10.8082   -0.8823   22.6334 H   0  0  0  0  0  0
    7.7815   -3.1982   16.0774 H   0  0  0  0  0  0
    9.9839   -4.3001   16.1184 H   0  0  0  0  0  0
   11.0070   -2.0599   20.4032 H   0  0  0  0  0  0
    9.1781   -0.0673   20.8267 H   0  0  0  0  0  0
   12.6555   -3.4801   19.3247 H   0  0  0  0  0  0
   12.1394   -4.6347   17.2271 H   0  0  0  0  0  0
    6.5451   -0.7170   19.1983 H   0  0  0  0  0  0
    8.7022    0.4668   22.8851 H   0  0  0  0  0  0
    7.5248   -2.8484   27.0570 H   0  0  0  0  0  0
    5.2803   -1.8808   27.0752 H   0  0  0  0  0  0
    6.2687    0.4979   23.6624 H   0  0  0  0  0  0
   11.5001   -6.9309   21.9667 H   0  0  0  0  0  0
   10.3980   -6.4469   20.1922 H   0  0  0  0  0  0
  1  5  1  0  0  0
  1  6  1  0  0  0
  1 32  1  0  0  0
  2 10  2  0  0  0
  2 21  1  0  0  0
  3 23  1  0  0  0
  3 29  1  0  0  0
  3 33  1  0  0  0
  3 34  1  0  0  0
  4  5  1  0  0  0
  4 29  1  0  0  0
  4 35  1  0  0  0
  4 36  1  0  0  0
  5 30  2  0  0  0
  6  7  1  0  0  0
  6 31  1  0  0  0
  6 37  1  0  0  0
  7 31  1  0  0  0
  7 38  1  0  0  0
  7 39  1  0  0  0
  8 22  1  0  0  0
  8 29  1  0  0  0
  8 40  1  0  0  0
  8 41  1  0  0  0
  9 13  1  0  0  0
  9 17  1  0  0  0
  9 21  2  0  0  0
 10 20  1  0  0  0
 10 42  1  0  0  0
 11 19  1  0  0  0
 11 20  2  0  0  0
 11 43  1  0  0  0
 12 13  2  0  0  0
 12 18  1  0  0  0
 12 44  1  0  0  0
 13 20  1  0  0  0
 14 22  1  0  0  0
 14 23  1  0  0  0
 14 26  2  0  0  0
 15 16  2  0  0  0
 16 17  1  0  0  0
 16 22  1  0  0  0
 17 45  1  0  0  0
 18 19  2  0  0  0
 18 46  1  0  0  0
 19 47  1  0  0  0
 21 48  1  0  0  0
 22 49  1  0  0  0
 23 24  2  0  0  0
 24 25  1  0  0  0
 24 50  1  0  0  0
 25 27  2  0  0  0
 25 51  1  0  0  0
 26 27  1  0  0  0
 26 52  1  0  0  0
 27 28  1  0  0  0
 31 53  1  0  0  0
 31 54  1  0  0  0
M  END
> <s_m_entry_id>
1617

> <s_m_entry_name>
169_ligand

> <s_pdb_PDB_TITLE>
GROUP DEPOSITION SARS-COV-2 MAIN PROTEASE IN COMPLEX WITH INHIBITORS FROM THE COVID MOONSHOT -- CRYSTAL STRUCTURE OF SARS-COV-2 MAIN PROTEASE IN COMPLEX WITH MAT-POS-5CD9EA36-13 (MPRO-P1889)

> <s_pdb_PDB_ID>
7GLE

> <s_m_Source_File>
7gle.pdb.gz

> <s_user_Compound_ID>
MAT-POS-5cd9ea36-13

> <s_user_Monomer-Dimer>
Dimer

> <s_user_xcode>
Mpro-P1889

$$$$
