7GLG_ligand
                    3D
 Schrodinger Suite 2021-2.
 52 55  0  0  1  0            999 V2000
   10.5103   -6.7585   20.7834 N   0  0  0  0  0  0
    8.6841   -0.9823   20.8582 N   0  0  0  0  0  0
    8.5360   -0.6296   23.2657 C   0  0  1  0  0  0
    8.1616   -1.4444   22.0236 C   0  0  0  0  0  0
    8.4870   -1.4991   19.5553 C   0  0  0  0  0  0
    7.2931   -1.3585   18.8412 C   0  0  0  0  0  0
    7.9637   -2.7023   17.1238 C   0  0  0  0  0  0
   10.2078   -3.7883   17.1415 C   0  0  0  0  0  0
   10.7841   -2.5245   19.5513 C   0  0  0  0  0  0
    7.5108   -0.9170   24.3510 C   0  0  0  0  0  0
    5.3294   -0.5881   25.3080 C   0  0  0  0  0  0
    7.7560   -1.9273   25.2969 C   0  0  0  0  0  0
    9.0810   -2.6505   25.3877 C   0  0  0  0  0  0
    3.8177    0.2835   25.3456 Cl  0  0  0  0  0  0
    6.2933   -0.2317   24.3812 C   0  0  0  0  0  0
    5.5391   -1.6065   26.2078 C   0  0  0  0  0  0
    6.7565   -2.2591   26.2103 C   0  0  0  0  0  0
    9.8770   -2.4395   24.1740 N   0  0  2  0  0  0
   11.1382   -3.3926   23.9108 S   0  0  0  0  0  0
   11.7718   -2.9572   22.7153 O   0  0  0  0  0  0
   11.8714   -3.4812   25.1278 O   0  0  0  0  0  0
   10.4423   -4.8056   23.6423 N   0  0  1  0  0  0
    9.5706   -4.9918   22.4646 C   0  0  0  0  0  0
   10.1255   -5.9861   21.5286 C   0  0  0  0  0  0
   11.0471   -6.0088   24.2246 C   0  0  0  0  0  0
    9.9373   -1.0352   23.7282 C   0  0  0  0  0  0
    7.4414   -2.4422   22.0894 O   0  0  0  0  0  0
    9.5094   -2.3097   18.9654 C   0  0  0  0  0  0
   11.7060   -3.3351   18.9513 C   0  0  0  0  0  0
   11.4162   -3.9681   17.7502 C   0  0  0  0  0  0
    9.2264   -2.9482   17.7217 C   0  0  0  0  0  0
    7.0258   -1.9289   17.6565 N   0  0  0  0  0  0
    9.2928   -0.1763   20.8622 H   0  0  0  0  0  0
    8.5240    0.4331   23.0234 H   0  0  0  0  0  0
    6.4943   -0.7501   19.2390 H   0  0  0  0  0  0
    7.7173   -3.1572   16.1757 H   0  0  0  0  0  0
    9.9931   -4.2889   16.2088 H   0  0  0  0  0  0
   11.0373   -2.0440   20.4849 H   0  0  0  0  0  0
    8.9036   -3.7173   25.5244 H   0  0  0  0  0  0
    9.6349   -2.2860   26.2530 H   0  0  0  0  0  0
    6.1083    0.5717   23.6835 H   0  0  0  0  0  0
    4.7578   -1.8856   26.8992 H   0  0  0  0  0  0
    6.9269   -3.0394   26.9374 H   0  0  0  0  0  0
    9.4474   -4.0386   21.9502 H   0  0  0  0  0  0
    8.5822   -5.3141   22.7921 H   0  0  0  0  0  0
   10.4561   -6.8826   23.9498 H   0  0  0  0  0  0
   12.0630   -6.1246   23.8471 H   0  0  0  0  0  0
   11.0720   -5.9144   25.3103 H   0  0  0  0  0  0
   10.2416   -0.4025   24.5621 H   0  0  0  0  0  0
   10.6338   -0.9489   22.8942 H   0  0  0  0  0  0
   12.6710   -3.4885   19.4114 H   0  0  0  0  0  0
   12.1590   -4.6084   17.2976 H   0  0  0  0  0  0
  1 24  3  0  0  0
  2  4  1  0  0  0
  2  5  1  0  0  0
  2 33  1  0  0  0
  3  4  1  0  0  0
  3 10  1  0  0  0
  3 26  1  0  0  0
  3 34  1  0  0  0
  4 27  2  0  0  0
  5  6  2  0  0  0
  5 28  1  0  0  0
  6 32  1  0  0  0
  6 35  1  0  0  0
  7 31  1  0  0  0
  7 32  2  0  0  0
  7 36  1  0  0  0
  8 30  1  0  0  0
  8 31  2  0  0  0
  8 37  1  0  0  0
  9 28  2  0  0  0
  9 29  1  0  0  0
  9 38  1  0  0  0
 10 12  1  0  0  0
 10 15  2  0  0  0
 11 14  1  0  0  0
 11 15  1  0  0  0
 11 16  2  0  0  0
 12 13  1  0  0  0
 12 17  2  0  0  0
 13 18  1  0  0  0
 13 39  1  0  0  0
 13 40  1  0  0  0
 15 41  1  0  0  0
 16 17  1  0  0  0
 16 42  1  0  0  0
 17 43  1  0  0  0
 18 19  1  0  0  0
 18 26  1  0  0  0
 19 20  2  0  0  0
 19 21  2  0  0  0
 19 22  1  0  0  0
 22 23  1  0  0  0
 22 25  1  0  0  0
 23 24  1  0  0  0
 23 44  1  0  0  0
 23 45  1  0  0  0
 25 46  1  0  0  0
 25 47  1  0  0  0
 25 48  1  0  0  0
 26 49  1  0  0  0
 26 50  1  0  0  0
 28 31  1  0  0  0
 29 30  2  0  0  0
 29 51  1  0  0  0
 30 52  1  0  0  0
M  END
> <s_m_entry_id>
1619

> <s_m_entry_name>
173_ligand

> <s_pdb_PDB_TITLE>
GROUP DEPOSITION SARS-COV-2 MAIN PROTEASE IN COMPLEX WITH INHIBITORS FROM THE COVID MOONSHOT -- CRYSTAL STRUCTURE OF SARS-COV-2 MAIN PROTEASE IN COMPLEX WITH MAT-POS-5CD9EA36-18 (MPRO-P1980)

> <s_pdb_PDB_ID>
7GLG

> <s_m_Source_File>
7glg.pdb.gz

> <s_user_Compound_ID>
MAT-POS-5cd9ea36-18

> <s_user_Monomer-Dimer>
Dimer

> <s_user_xcode>
Mpro-P1980

$$$$
