7GLH_ligand
                    3D
 Schrodinger Suite 2021-2.
 38 40  0  0  1  0            999 V2000
    7.1211   -1.9883   17.4403 N   0  0  0  0  0  0
    8.4545   -1.4298   19.3880 C   0  0  0  0  0  0
    8.2473   -1.3353   21.8701 C   0  0  0  0  0  0
    8.5212   -0.4032   23.0366 C   0  0  0  0  0  0
    7.6869   -0.7238   24.2553 C   0  0  0  0  0  0
    8.1392   -1.6250   25.2115 C   0  0  0  0  0  0
    6.0253   -1.5377   26.3529 C   0  0  0  0  0  0
    7.3009   -1.3523   18.6063 C   0  0  0  0  0  0
    9.3516   -2.9159   17.6667 C   0  0  0  0  0  0
   11.5501   -3.8162   17.8741 C   0  0  0  0  0  0
   12.5551   -4.5967   17.4134 F   0  0  0  0  0  0
   11.7588   -3.1493   19.0722 C   0  0  0  0  0  0
   12.9470   -3.4121   19.6959 O   0  0  0  0  0  0
   13.4979   -2.3993   20.5440 C   0  0  0  0  0  0
   10.4004   -3.7266   17.1749 C   0  0  0  0  0  0
    9.5368   -2.2228   18.8966 C   0  0  0  0  0  0
   10.7670   -2.3587   19.5729 C   0  0  0  0  0  0
    8.1141   -2.7487   16.9967 C   0  0  0  0  0  0
    8.5960   -0.8349   20.6605 N   0  0  0  0  0  0
    7.7390   -2.4472   22.0315 O   0  0  0  0  0  0
    6.4052   -0.1971   24.3836 C   0  0  0  0  0  0
    5.5920   -0.6201   25.4170 C   0  0  0  0  0  0
    3.9668    0.0066   25.5228 Cl  0  0  0  0  0  0
    7.3177   -2.0288   26.2535 C   0  0  0  0  0  0
    8.3334    0.6258   22.7297 H   0  0  0  0  0  0
    9.5782   -0.4517   23.2984 H   0  0  0  0  0  0
    9.1423   -2.0205   25.1491 H   0  0  0  0  0  0
    5.3615   -1.8587   27.1420 H   0  0  0  0  0  0
    6.5184   -0.7234   19.0046 H   0  0  0  0  0  0
   14.4389   -2.7511   20.9671 H   0  0  0  0  0  0
   13.6772   -1.4952   19.9620 H   0  0  0  0  0  0
   12.7976   -2.1790   21.3498 H   0  0  0  0  0  0
   10.2763   -4.2665   16.2478 H   0  0  0  0  0  0
   10.9176   -1.8255   20.5000 H   0  0  0  0  0  0
    8.0065   -3.2897   16.0681 H   0  0  0  0  0  0
    9.0044    0.0850   20.7455 H   0  0  0  0  0  0
    6.0505    0.5389   23.6771 H   0  0  0  0  0  0
    7.6845   -2.7279   26.9906 H   0  0  0  0  0  0
  1  8  1  0  0  0
  1 18  2  0  0  0
  2  8  2  0  0  0
  2 16  1  0  0  0
  2 19  1  0  0  0
  3  4  1  0  0  0
  3 19  1  0  0  0
  3 20  2  0  0  0
  4  5  1  0  0  0
  4 25  1  0  0  0
  4 26  1  0  0  0
  5  6  1  0  0  0
  5 21  2  0  0  0
  6 24  2  0  0  0
  6 27  1  0  0  0
  7 22  2  0  0  0
  7 24  1  0  0  0
  7 28  1  0  0  0
  8 29  1  0  0  0
  9 15  1  0  0  0
  9 16  2  0  0  0
  9 18  1  0  0  0
 10 11  1  0  0  0
 10 12  1  0  0  0
 10 15  2  0  0  0
 12 13  1  0  0  0
 12 17  2  0  0  0
 13 14  1  0  0  0
 14 30  1  0  0  0
 14 31  1  0  0  0
 14 32  1  0  0  0
 15 33  1  0  0  0
 16 17  1  0  0  0
 17 34  1  0  0  0
 18 35  1  0  0  0
 19 36  1  0  0  0
 21 22  1  0  0  0
 21 37  1  0  0  0
 22 23  1  0  0  0
 24 38  1  0  0  0
M  END
> <s_m_entry_id>
1621

> <s_m_entry_name>
175_ligand

> <s_pdb_PDB_TITLE>
GROUP DEPOSITION SARS-COV-2 MAIN PROTEASE IN COMPLEX WITH INHIBITORS FROM THE COVID MOONSHOT -- CRYSTAL STRUCTURE OF SARS-COV-2 MAIN PROTEASE IN COMPLEX WITH PET-UNK-B38839DC-1 (MPRO-P1981)

> <s_pdb_PDB_ID>
7GLH

> <s_m_Source_File>
7glh.pdb.gz

> <s_user_Compound_ID>
PET-UNK-b38839dc-1 

> <s_user_Monomer-Dimer>
Dimer

> <s_user_xcode>
Mpro-P1981

$$$$
