7GLJ_ligand
                    3D
 Schrodinger Suite 2021-2.
 59 63  0  0  1  0            999 V2000
    8.7203   -0.9690   20.9366 N   0  0  0  0  0  0
    8.5623   -0.6538   23.3498 C   0  0  1  0  0  0
    8.1934   -1.4526   22.0945 C   0  0  0  0  0  0
    8.5223   -1.4613   19.6193 C   0  0  0  0  0  0
    7.3325   -1.2997   18.9035 C   0  0  0  0  0  0
    7.9994   -2.6137   17.1620 C   0  0  0  0  0  0
   10.2388   -3.7083   17.1554 C   0  0  0  0  0  0
   10.8252   -2.4819   19.5841 C   0  0  0  0  0  0
    7.5376   -0.9679   24.4284 C   0  0  0  0  0  0
    5.3476   -0.6671   25.3725 C   0  0  0  0  0  0
    7.7818   -1.9920   25.3606 C   0  0  0  0  0  0
    9.0977   -2.7334   25.4155 C   0  0  0  0  0  0
    9.6780   -6.7866   21.2970 C   0  0  0  0  0  0
   10.9425   -9.1239   21.6453 O   0  0  0  0  0  0
    9.9664   -8.2644   22.2623 S   0  0  0  0  0  0
    8.7680   -8.8554   22.7991 O   0  0  0  0  0  0
   10.6388   -6.9838   23.3118 C   0  0  0  0  0  0
   10.6614   -5.9552   22.1591 C   0  0  0  0  0  0
   12.0323   -5.8525   21.4854 C   0  0  0  0  0  0
   10.0803   -4.5759   22.4933 C   0  0  0  0  0  0
   10.9464   -3.5829   23.7005 S   0  0  0  0  0  0
   11.2551   -4.4034   24.8287 O   0  0  0  0  0  0
   12.0037   -2.8796   23.0430 O   0  0  0  0  0  0
    9.8739   -2.4717   24.1973 N   0  0  2  0  0  0
    6.7793   -2.3397   26.2651 C   0  0  0  0  0  0
    5.5569   -1.6962   26.2613 C   0  0  0  0  0  0
    3.8166    0.1697   25.3846 Cl  0  0  0  0  0  0
    6.3175   -0.2876   24.4623 C   0  0  0  0  0  0
    9.9651   -1.0524   23.8106 C   0  0  0  0  0  0
    7.4778   -2.4576   22.1437 O   0  0  0  0  0  0
    9.5455   -2.2604   19.0081 C   0  0  0  0  0  0
   11.7511   -3.2713   18.9597 C   0  0  0  0  0  0
   11.4547   -3.8913   17.7515 C   0  0  0  0  0  0
    9.2598   -2.8750   17.7541 C   0  0  0  0  0  0
    7.0658   -1.8467   17.7074 N   0  0  0  0  0  0
    9.3321   -0.1656   20.9571 H   0  0  0  0  0  0
    8.5406    0.4125   23.1243 H   0  0  0  0  0  0
    6.5362   -0.6931   19.3092 H   0  0  0  0  0  0
    7.7506   -3.0511   16.2062 H   0  0  0  0  0  0
   10.0163   -4.2003   16.2200 H   0  0  0  0  0  0
   11.0789   -2.0239   20.5288 H   0  0  0  0  0  0
    8.9084   -3.8033   25.5025 H   0  0  0  0  0  0
    9.6650   -2.4023   26.2855 H   0  0  0  0  0  0
    8.6665   -6.4377   21.5054 H   0  0  0  0  0  0
   10.1273   -6.9308   20.3144 H   0  0  0  0  0  0
   11.6689   -7.2476   23.5516 H   0  0  0  0  0  0
    9.8656   -6.6839   24.0192 H   0  0  0  0  0  0
   12.7025   -5.2638   22.1120 H   0  0  0  0  0  0
   12.4468   -6.8515   21.3494 H   0  0  0  0  0  0
   11.9252   -5.3688   20.5144 H   0  0  0  0  0  0
    9.0418   -4.6910   22.8037 H   0  0  0  0  0  0
    9.9678   -4.0027   21.5730 H   0  0  0  0  0  0
    6.9513   -3.1251   26.9863 H   0  0  0  0  0  0
    4.7716   -1.9898   26.9421 H   0  0  0  0  0  0
    6.1358    0.5298   23.7801 H   0  0  0  0  0  0
   10.2432   -0.4573   24.6806 H   0  0  0  0  0  0
   10.6625   -0.9479   22.9794 H   0  0  0  0  0  0
   12.7240   -3.4182   19.4052 H   0  0  0  0  0  0
   12.1958   -4.5225   17.2838 H   0  0  0  0  0  0
  1  3  1  0  0  0
  1  4  1  0  0  0
  1 36  1  0  0  0
  2  3  1  0  0  0
  2  9  1  0  0  0
  2 29  1  0  0  0
  2 37  1  0  0  0
  3 30  2  0  0  0
  4  5  2  0  0  0
  4 31  1  0  0  0
  5 35  1  0  0  0
  5 38  1  0  0  0
  6 34  1  0  0  0
  6 35  2  0  0  0
  6 39  1  0  0  0
  7 33  1  0  0  0
  7 34  2  0  0  0
  7 40  1  0  0  0
  8 31  2  0  0  0
  8 32  1  0  0  0
  8 41  1  0  0  0
  9 11  1  0  0  0
  9 28  2  0  0  0
 10 26  2  0  0  0
 10 27  1  0  0  0
 10 28  1  0  0  0
 11 12  1  0  0  0
 11 25  2  0  0  0
 12 24  1  0  0  0
 12 42  1  0  0  0
 12 43  1  0  0  0
 13 15  1  0  0  0
 13 18  1  0  0  0
 13 44  1  0  0  0
 13 45  1  0  0  0
 14 15  2  0  0  0
 15 16  2  0  0  0
 15 17  1  0  0  0
 17 18  1  0  0  0
 17 46  1  0  0  0
 17 47  1  0  0  0
 18 19  1  0  0  0
 18 20  1  0  0  0
 19 48  1  0  0  0
 19 49  1  0  0  0
 19 50  1  0  0  0
 20 21  1  0  0  0
 20 51  1  0  0  0
 20 52  1  0  0  0
 21 22  2  0  0  0
 21 23  2  0  0  0
 21 24  1  0  0  0
 24 29  1  0  0  0
 25 26  1  0  0  0
 25 53  1  0  0  0
 26 54  1  0  0  0
 28 55  1  0  0  0
 29 56  1  0  0  0
 29 57  1  0  0  0
 31 34  1  0  0  0
 32 33  2  0  0  0
 32 58  1  0  0  0
 33 59  1  0  0  0
M  END
> <s_m_entry_id>
1623

> <s_m_entry_name>
179_ligand

> <s_pdb_PDB_TITLE>
GROUP DEPOSITION SARS-COV-2 MAIN PROTEASE IN COMPLEX WITH INHIBITORS FROM THE COVID MOONSHOT -- CRYSTAL STRUCTURE OF SARS-COV-2 MAIN PROTEASE IN COMPLEX WITH EDJ-MED-4FFF0A85-3 (MPRO-P1983)

> <s_pdb_PDB_ID>
7GLJ

> <s_m_Source_File>
7glj.pdb.gz

> <s_user_Compound_ID>
EDJ-MED-4fff0a85-3

> <s_user_Monomer-Dimer>
Dimer

> <s_user_xcode>
Mpro-P1983

$$$$
