7GLK_ligand
                    3D
 Schrodinger Suite 2021-2.
 57 61  0  0  1  0            999 V2000
    8.6792   -0.9642   20.8129 N   0  0  0  0  0  0
    8.5905   -0.7114   23.2396 C   0  0  1  0  0  0
    8.1716   -1.4649   21.9728 C   0  0  0  0  0  0
    8.4924   -1.4641   19.4987 C   0  0  0  0  0  0
    7.3086   -1.3081   18.7725 C   0  0  0  0  0  0
    7.9823   -2.6545   17.0559 C   0  0  0  0  0  0
   10.2118   -3.7715   17.0893 C   0  0  0  0  0  0
   10.7785   -2.5254   19.5142 C   0  0  0  0  0  0
    7.6082   -0.9859   24.3708 C   0  0  0  0  0  0
    5.4315   -0.6949   25.3498 C   0  0  0  0  0  0
    7.8836   -1.9814   25.3241 C   0  0  0  0  0  0
    9.2387   -2.6349   25.4446 C   0  0  0  0  0  0
   10.4947   -6.3682   20.5714 C   0  0  0  0  0  0
    3.9139    0.1603   25.4162 Cl  0  0  0  0  0  0
    6.3788   -0.3210   24.4127 C   0  0  0  0  0  0
    5.6623   -1.7154   26.2409 C   0  0  0  0  0  0
    6.8935   -2.3430   26.2352 C   0  0  0  0  0  0
    9.9822   -2.4900   24.1883 N   0  0  3  0  0  0
   10.9049   -3.7291   23.6697 S   0  0  0  0  0  0
   11.0444   -4.6398   24.7633 O   0  0  0  0  0  0
   12.0795   -3.1632   23.0822 O   0  0  0  0  0  0
    9.9555   -4.5413   22.3962 C   0  0  0  0  0  0
   10.4169   -5.9553   22.0015 C   0  0  0  0  0  0
   11.7559   -6.1663   21.3802 C   0  0  0  0  0  0
   10.0622   -6.9427   22.9902 O   0  0  0  0  0  0
    9.0254   -7.8936   22.7023 C   0  0  0  0  0  0
   10.0118   -1.1226   23.6365 C   0  0  0  0  0  0
    7.4547   -2.4643   22.0157 O   0  0  0  0  0  0
    9.5152   -2.2833   18.9112 C   0  0  0  0  0  0
   11.6921   -3.3567   18.9261 C   0  0  0  0  0  0
   11.4044   -3.9883   17.7190 C   0  0  0  0  0  0
    9.2386   -2.9106   17.6606 C   0  0  0  0  0  0
    7.0457   -1.8754   17.5833 N   0  0  0  0  0  0
    9.2643   -0.1412   20.8315 H   0  0  0  0  0  0
    8.5847    0.3575   23.0261 H   0  0  0  0  0  0
    6.5135   -0.6897   19.1622 H   0  0  0  0  0  0
    7.7385   -3.1057   16.1054 H   0  0  0  0  0  0
   10.0022   -4.2571   16.1476 H   0  0  0  0  0  0
   11.0297   -2.0502   20.4510 H   0  0  0  0  0  0
    9.1124   -3.6935   25.6716 H   0  0  0  0  0  0
    9.7978   -2.1649   26.2537 H   0  0  0  0  0  0
   10.4320   -5.3836   20.1078 H   0  0  0  0  0  0
   10.3822   -7.4447   20.7001 H   0  0  0  0  0  0
    6.1733    0.4788   23.7166 H   0  0  0  0  0  0
    4.8876   -2.0153   26.9310 H   0  0  0  0  0  0
    7.0815   -3.1267   26.9542 H   0  0  0  0  0  0
    9.9317   -3.9100   21.5079 H   0  0  0  0  0  0
    8.9080   -4.5756   22.6956 H   0  0  0  0  0  0
   11.9744   -5.1365   21.0972 H   0  0  0  0  0  0
   11.9247   -7.1978   21.6896 H   0  0  0  0  0  0
    8.8932   -8.5576   23.5566 H   0  0  0  0  0  0
    8.0923   -7.3659   22.5050 H   0  0  0  0  0  0
    9.3027   -8.4803   21.8263 H   0  0  0  0  0  0
   10.3913   -0.4344   24.3919 H   0  0  0  0  0  0
   10.6553   -1.0999   22.7570 H   0  0  0  0  0  0
   12.6481   -3.5288   19.3982 H   0  0  0  0  0  0
   12.1332   -4.6542   17.2809 H   0  0  0  0  0  0
  1  3  1  0  0  0
  1  4  1  0  0  0
  1 34  1  0  0  0
  2  3  1  0  0  0
  2  9  1  0  0  0
  2 27  1  0  0  0
  2 35  1  0  0  0
  3 28  2  0  0  0
  4  5  2  0  0  0
  4 29  1  0  0  0
  5 33  1  0  0  0
  5 36  1  0  0  0
  6 32  1  0  0  0
  6 33  2  0  0  0
  6 37  1  0  0  0
  7 31  1  0  0  0
  7 32  2  0  0  0
  7 38  1  0  0  0
  8 29  2  0  0  0
  8 30  1  0  0  0
  8 39  1  0  0  0
  9 11  1  0  0  0
  9 15  2  0  0  0
 10 14  1  0  0  0
 10 15  1  0  0  0
 10 16  2  0  0  0
 11 12  1  0  0  0
 11 17  2  0  0  0
 12 18  1  0  0  0
 12 40  1  0  0  0
 12 41  1  0  0  0
 13 23  1  0  0  0
 13 24  1  0  0  0
 13 42  1  0  0  0
 13 43  1  0  0  0
 15 44  1  0  0  0
 16 17  1  0  0  0
 16 45  1  0  0  0
 17 46  1  0  0  0
 18 19  1  0  0  0
 18 27  1  0  0  0
 19 20  2  0  0  0
 19 21  2  0  0  0
 19 22  1  0  0  0
 22 23  1  0  0  0
 22 47  1  0  0  0
 22 48  1  0  0  0
 23 24  1  0  0  0
 23 25  1  0  0  0
 24 49  1  0  0  0
 24 50  1  0  0  0
 25 26  1  0  0  0
 26 51  1  0  0  0
 26 52  1  0  0  0
 26 53  1  0  0  0
 27 54  1  0  0  0
 27 55  1  0  0  0
 29 32  1  0  0  0
 30 31  2  0  0  0
 30 56  1  0  0  0
 31 57  1  0  0  0
M  END
> <s_m_entry_id>
1625

> <s_m_entry_name>
181_ligand

> <s_pdb_PDB_TITLE>
GROUP DEPOSITION SARS-COV-2 MAIN PROTEASE IN COMPLEX WITH INHIBITORS FROM THE COVID MOONSHOT -- CRYSTAL STRUCTURE OF SARS-COV-2 MAIN PROTEASE IN COMPLEX WITH EDJ-MED-76744C27-4 (MPRO-P1986)

> <s_pdb_PDB_ID>
7GLK

> <s_m_Source_File>
7glk.pdb.gz

> <s_user_Compound_ID>
EDJ-MED-76744c27-4

> <s_user_Monomer-Dimer>
Dimer

> <s_user_xcode>
Mpro-P1986

$$$$
