7GLL_ligand
                    3D
 Schrodinger Suite 2021-2.
 60 64  0  0  1  0            999 V2000
    8.7356   -0.9485   20.7865 N   0  0  0  0  0  0
    9.3277   -2.4454   25.3781 C   0  0  0  0  0  0
   10.0222   -0.8295   23.6212 C   0  0  0  0  0  0
    8.5786   -0.5678   23.1872 C   0  0  1  0  0  0
    8.2276   -1.4120   21.9581 C   0  0  0  0  0  0
    8.5182   -1.4666   19.4888 C   0  0  0  0  0  0
    7.9334   -2.6943   17.0870 C   0  0  0  0  0  0
   11.3602   -4.0431   17.6821 C   0  0  0  0  0  0
   10.7872   -2.5566   19.4708 C   0  0  0  0  0  0
    7.6173   -0.8639   24.3252 C   0  0  0  0  0  0
   10.6500   -5.8078   22.2529 C   0  0  0  0  0  0
    9.6062   -6.6321   21.5005 C   0  0  0  0  0  0
   10.1526   -8.0005   21.1660 C   0  0  0  0  0  0
   11.9842   -5.8288   21.4994 C   0  0  0  0  0  0
   12.1107   -2.6573   22.8402 O   0  0  0  0  0  0
   11.1033   -3.3390   23.5911 S   0  0  0  0  0  0
   11.4903   -4.1301   24.7158 O   0  0  0  0  0  0
   10.1624   -4.3754   22.4888 C   0  0  0  0  0  0
   12.3866   -7.2422   21.1450 C   0  0  0  0  0  0
   11.3573   -7.9070   20.3950 O   0  0  0  0  0  0
   10.0583   -2.2141   24.1264 N   0  0  3  0  0  0
    7.9645   -1.7929   25.3221 C   0  0  0  0  0  0
    7.0212   -2.1324   26.2913 C   0  0  0  0  0  0
    5.7571   -1.5731   26.2852 C   0  0  0  0  0  0
    6.3533   -0.2698   24.3524 C   0  0  0  0  0  0
    5.4464   -0.6352   25.3287 C   0  0  0  0  0  0
    3.8802    0.1302   25.3648 Cl  0  0  0  0  0  0
    7.5233   -2.4213   22.0347 O   0  0  0  0  0  0
    9.5075   -2.3251   18.9034 C   0  0  0  0  0  0
   11.6844   -3.3928   18.8655 C   0  0  0  0  0  0
   10.1453   -3.8438   17.0903 C   0  0  0  0  0  0
    9.1913   -2.9724   17.6749 C   0  0  0  0  0  0
    7.0298   -1.8754   17.6111 N   0  0  0  0  0  0
    7.3292   -1.2893   18.7794 C   0  0  0  0  0  0
    9.3451   -0.1431   20.7839 H   0  0  0  0  0  0
    9.8948   -2.0304   26.2115 H   0  0  0  0  0  0
    9.2109   -3.5174   25.5374 H   0  0  0  0  0  0
   10.2887   -0.1434   24.4253 H   0  0  0  0  0  0
   10.6816   -0.7417   22.7577 H   0  0  0  0  0  0
    8.4839    0.4850   22.9210 H   0  0  0  0  0  0
    7.6591   -3.1610   16.1524 H   0  0  0  0  0  0
   12.0714   -4.7132   17.2219 H   0  0  0  0  0  0
   11.0648   -2.0695   20.3939 H   0  0  0  0  0  0
   10.8071   -6.2732   23.2260 H   0  0  0  0  0  0
    9.3306   -6.1164   20.5806 H   0  0  0  0  0  0
    8.7140   -6.7384   22.1176 H   0  0  0  0  0  0
    9.4056   -8.5623   20.6052 H   0  0  0  0  0  0
   10.3534   -8.5463   22.0880 H   0  0  0  0  0  0
   12.7582   -5.3758   22.1192 H   0  0  0  0  0  0
   11.8956   -5.2373   20.5881 H   0  0  0  0  0  0
    9.1249   -4.4018   22.8223 H   0  0  0  0  0  0
   10.0569   -3.8714   21.5280 H   0  0  0  0  0  0
   12.5889   -7.8017   22.0584 H   0  0  0  0  0  0
   13.3061   -7.2217   20.5599 H   0  0  0  0  0  0
    7.2730   -2.8436   27.0642 H   0  0  0  0  0  0
    5.0298   -1.8742   27.0247 H   0  0  0  0  0  0
    6.0888    0.4714   23.6127 H   0  0  0  0  0  0
   12.6535   -3.5449   19.3174 H   0  0  0  0  0  0
    9.9038   -4.3521   16.1684 H   0  0  0  0  0  0
    6.5614   -0.6360   19.1670 H   0  0  0  0  0  0
  1  5  1  0  0  0
  1  6  1  0  0  0
  1 35  1  0  0  0
  2 21  1  0  0  0
  2 22  1  0  0  0
  2 36  1  0  0  0
  2 37  1  0  0  0
  3  4  1  0  0  0
  3 21  1  0  0  0
  3 38  1  0  0  0
  3 39  1  0  0  0
  4  5  1  0  0  0
  4 10  1  0  0  0
  4 40  1  0  0  0
  5 28  2  0  0  0
  6 29  1  0  0  0
  6 34  2  0  0  0
  7 32  1  0  0  0
  7 33  2  0  0  0
  7 41  1  0  0  0
  8 30  1  0  0  0
  8 31  2  0  0  0
  8 42  1  0  0  0
  9 29  1  0  0  0
  9 30  2  0  0  0
  9 43  1  0  0  0
 10 22  1  0  0  0
 10 25  2  0  0  0
 11 12  1  0  0  0
 11 14  1  0  0  0
 11 18  1  0  0  0
 11 44  1  0  0  0
 12 13  1  0  0  0
 12 45  1  0  0  0
 12 46  1  0  0  0
 13 20  1  0  0  0
 13 47  1  0  0  0
 13 48  1  0  0  0
 14 19  1  0  0  0
 14 49  1  0  0  0
 14 50  1  0  0  0
 15 16  2  0  0  0
 16 17  2  0  0  0
 16 18  1  0  0  0
 16 21  1  0  0  0
 18 51  1  0  0  0
 18 52  1  0  0  0
 19 20  1  0  0  0
 19 53  1  0  0  0
 19 54  1  0  0  0
 22 23  2  0  0  0
 23 24  1  0  0  0
 23 55  1  0  0  0
 24 26  2  0  0  0
 24 56  1  0  0  0
 25 26  1  0  0  0
 25 57  1  0  0  0
 26 27  1  0  0  0
 29 32  2  0  0  0
 30 58  1  0  0  0
 31 32  1  0  0  0
 31 59  1  0  0  0
 33 34  1  0  0  0
 34 60  1  0  0  0
M  END
> <s_m_entry_id>
1627

> <s_m_entry_name>
183_ligand

> <s_pdb_PDB_TITLE>
GROUP DEPOSITION SARS-COV-2 MAIN PROTEASE IN COMPLEX WITH INHIBITORS FROM THE COVID MOONSHOT -- CRYSTAL STRUCTURE OF SARS-COV-2 MAIN PROTEASE IN COMPLEX WITH EDJ-MED-4FFF0A85-1 (MPRO-P1988)

> <s_pdb_PDB_ID>
7GLL

> <s_m_Source_File>
7gll.pdb.gz

> <s_user_Compound_ID>
EDJ-MED-4fff0a85-1

> <s_user_Monomer-Dimer>
Dimer

> <s_user_xcode>
Mpro-P1988

$$$$
