7GLM_ligand
                    3D
 Schrodinger Suite 2021-2.
 55 58  0  0  1  0            999 V2000
    9.9813   -8.3537   21.0112 N   0  0  0  0  0  0
    8.7500   -0.9932   20.8044 N   0  0  0  0  0  0
   10.0501   -1.1196   23.6607 C   0  0  0  0  0  0
    8.6442   -0.7073   23.2222 C   0  0  1  0  0  0
    8.2507   -1.4909   21.9665 C   0  0  0  0  0  0
    8.5487   -1.4853   19.4877 C   0  0  0  0  0  0
    7.3649   -1.3179   18.7659 C   0  0  0  0  0  0
    9.2593   -2.9519   17.6554 C   0  0  0  0  0  0
   11.7378   -3.3631   18.8744 C   0  0  0  0  0  0
    9.5565   -2.3107   18.8954 C   0  0  0  0  0  0
    6.4038   -0.3228   24.3497 C   0  0  0  0  0  0
    6.9802   -2.1860   26.3150 C   0  0  0  0  0  0
    7.9281   -1.9256   25.3284 C   0  0  0  0  0  0
    9.2287   -2.6908   25.3696 C   0  0  0  0  0  0
    3.9151    0.1352   25.3004 Cl  0  0  0  0  0  0
    5.4814   -0.6284   25.3330 C   0  0  0  0  0  0
    5.7517   -1.5557   26.3110 C   0  0  0  0  0  0
    9.9718   -2.5203   24.1163 N   0  0  2  0  0  0
   11.2669   -3.4472   23.9673 S   0  0  0  0  0  0
   11.8991   -3.4805   25.2383 O   0  0  0  0  0  0
   11.9833   -3.0258   22.8141 O   0  0  0  0  0  0
   10.6238   -4.8875   23.6808 N   0  0  3  0  0  0
    9.7044   -5.2465   22.5792 C   0  0  0  0  0  0
   10.4314   -5.8082   21.3627 C   0  0  0  0  0  0
   10.1575   -7.2373   21.1686 C   0  0  0  0  0  0
   10.8410   -5.9657   24.6500 C   0  0  0  0  0  0
    7.6349   -0.9848   24.3260 C   0  0  0  0  0  0
    7.5446   -2.5016   22.0178 O   0  0  0  0  0  0
   10.8315   -2.5350   19.4724 C   0  0  0  0  0  0
   11.4269   -4.0186   17.6895 C   0  0  0  0  0  0
   10.2203   -3.8217   17.0816 C   0  0  0  0  0  0
    8.0049   -2.6846   17.0587 C   0  0  0  0  0  0
    7.0855   -1.8898   17.5857 N   0  0  0  0  0  0
    9.3423   -0.1752   20.8186 H   0  0  0  0  0  0
   10.3722   -0.4867   24.4878 H   0  0  0  0  0  0
   10.7294   -1.0520   22.8110 H   0  0  0  0  0  0
    8.6396    0.3585   22.9938 H   0  0  0  0  0  0
    6.5815   -0.6834   19.1533 H   0  0  0  0  0  0
   12.7088   -3.5144   19.3225 H   0  0  0  0  0  0
    6.1717    0.4242   23.6049 H   0  0  0  0  0  0
    7.2000   -2.8922   27.1021 H   0  0  0  0  0  0
    9.0222   -3.7493   25.5280 H   0  0  0  0  0  0
    9.8342   -2.3328   26.2023 H   0  0  0  0  0  0
    5.0201   -1.7940   27.0689 H   0  0  0  0  0  0
    9.1313   -4.3673   22.2846 H   0  0  0  0  0  0
    8.9787   -5.9771   22.9366 H   0  0  0  0  0  0
   11.5045   -5.6574   21.4801 H   0  0  0  0  0  0
   10.1282   -5.2568   20.4726 H   0  0  0  0  0  0
   10.3401   -6.8707   24.3059 H   0  0  0  0  0  0
   11.9096   -6.1574   24.7478 H   0  0  0  0  0  0
   10.4350   -5.6720   25.6180 H   0  0  0  0  0  0
   11.0819   -2.0395   20.3988 H   0  0  0  0  0  0
   12.1427   -4.6914   17.2407 H   0  0  0  0  0  0
   10.0006   -4.3345   16.1568 H   0  0  0  0  0  0
    7.7482   -3.1407   16.1139 H   0  0  0  0  0  0
  1 25  3  0  0  0
  2  5  1  0  0  0
  2  6  1  0  0  0
  2 34  1  0  0  0
  3  4  1  0  0  0
  3 18  1  0  0  0
  3 35  1  0  0  0
  3 36  1  0  0  0
  4  5  1  0  0  0
  4 27  1  0  0  0
  4 37  1  0  0  0
  5 28  2  0  0  0
  6  7  2  0  0  0
  6 10  1  0  0  0
  7 33  1  0  0  0
  7 38  1  0  0  0
  8 10  1  0  0  0
  8 31  2  0  0  0
  8 32  1  0  0  0
  9 29  1  0  0  0
  9 30  2  0  0  0
  9 39  1  0  0  0
 10 29  2  0  0  0
 11 16  1  0  0  0
 11 27  2  0  0  0
 11 40  1  0  0  0
 12 13  2  0  0  0
 12 17  1  0  0  0
 12 41  1  0  0  0
 13 14  1  0  0  0
 13 27  1  0  0  0
 14 18  1  0  0  0
 14 42  1  0  0  0
 14 43  1  0  0  0
 15 16  1  0  0  0
 16 17  2  0  0  0
 17 44  1  0  0  0
 18 19  1  0  0  0
 19 20  2  0  0  0
 19 21  2  0  0  0
 19 22  1  0  0  0
 22 23  1  0  0  0
 22 26  1  0  0  0
 23 24  1  0  0  0
 23 45  1  0  0  0
 23 46  1  0  0  0
 24 25  1  0  0  0
 24 47  1  0  0  0
 24 48  1  0  0  0
 26 49  1  0  0  0
 26 50  1  0  0  0
 26 51  1  0  0  0
 29 52  1  0  0  0
 30 31  1  0  0  0
 30 53  1  0  0  0
 31 54  1  0  0  0
 32 33  2  0  0  0
 32 55  1  0  0  0
M  END
> <s_m_entry_id>
1629

> <s_m_entry_name>
185_ligand

> <s_pdb_PDB_TITLE>
GROUP DEPOSITION SARS-COV-2 MAIN PROTEASE IN COMPLEX WITH INHIBITORS FROM THE COVID MOONSHOT -- CRYSTAL STRUCTURE OF SARS-COV-2 MAIN PROTEASE IN COMPLEX WITH MAT-POS-5CD9EA36-21 (MPRO-P1990)

> <s_pdb_PDB_ID>
7GLM

> <s_m_Source_File>
7glm.pdb.gz

> <s_user_Compound_ID>
MAT-POS-5cd9ea36-21

> <s_user_Monomer-Dimer>
Dimer

> <s_user_xcode>
Mpro-P1990

$$$$
