7GLN_ligand
                    3D
 Schrodinger Suite 2021-2.
 54 57  0  0  1  0            999 V2000
   10.0933   -2.4804   24.2592 N   0  0  3  0  0  0
    7.0660   -1.9743   17.5903 N   0  0  0  0  0  0
    8.6125   -0.7384   23.2182 C   0  0  1  0  0  0
    8.1767   -1.5042   21.9665 C   0  0  0  0  0  0
    8.5015   -1.5561   19.5035 C   0  0  0  0  0  0
    7.3305   -1.3835   18.7651 C   0  0  0  0  0  0
    7.9864   -2.7940   17.0937 C   0  0  0  0  0  0
   10.2169   -3.9054   17.1416 C   0  0  0  0  0  0
   10.7768   -2.6346   19.5510 C   0  0  0  0  0  0
    7.6186   -0.9945   24.3375 C   0  0  0  0  0  0
    5.4660   -0.6337   25.3444 C   0  0  0  0  0  0
    7.8995   -1.9565   25.3222 C   0  0  0  0  0  0
    9.2110   -2.7063   25.4120 C   0  0  0  0  0  0
    3.9362    0.2045   25.3663 Cl  0  0  0  0  0  0
    6.3993   -0.3142   24.3726 C   0  0  0  0  0  0
    5.7127   -1.5994   26.2885 C   0  0  0  0  0  0
    6.9345   -2.2412   26.2868 C   0  0  0  0  0  0
   11.2690   -3.4643   23.7995 S   0  0  0  0  0  0
   11.8292   -2.9481   22.5987 O   0  0  0  0  0  0
   12.0853   -3.6795   24.9434 O   0  0  0  0  0  0
   10.4981   -4.8290   23.4733 N   0  0  3  0  0  0
   10.6285   -5.9373   24.4249 C   0  0  0  0  0  0
    9.6950   -5.1209   22.2719 C   0  0  0  0  0  0
   10.4387   -5.9805   21.2798 C   0  0  0  0  0  0
   10.0233   -1.1396   23.6480 C   0  0  0  0  0  0
    7.4433   -2.4960   22.0244 O   0  0  0  0  0  0
    8.6920   -1.0276   20.8032 N   0  0  0  0  0  0
    9.5056   -2.4191   18.9540 C   0  0  0  0  0  0
   11.7087   -3.4361   18.9544 C   0  0  0  0  0  0
   11.4276   -4.0746   17.7515 C   0  0  0  0  0  0
    9.2290   -3.0658   17.7162 C   0  0  0  0  0  0
    8.6100    0.3275   22.9901 H   0  0  0  0  0  0
    6.6072   -0.7151   19.2084 H   0  0  0  0  0  0
    7.8085   -3.3019   16.1573 H   0  0  0  0  0  0
   10.0045   -4.4136   16.2126 H   0  0  0  0  0  0
   11.0190   -2.1615   20.4912 H   0  0  0  0  0  0
    9.7300   -2.4192   26.3266 H   0  0  0  0  0  0
    9.0117   -3.7733   25.5115 H   0  0  0  0  0  0
    6.1892    0.4555   23.6446 H   0  0  0  0  0  0
    4.9559   -1.8469   27.0182 H   0  0  0  0  0  0
    7.1362   -2.9763   27.0520 H   0  0  0  0  0  0
   10.0521   -6.7915   24.0698 H   0  0  0  0  0  0
   11.6778   -6.2192   24.5136 H   0  0  0  0  0  0
   10.2528   -5.6261   25.3997 H   0  0  0  0  0  0
    9.4042   -4.1852   21.7942 H   0  0  0  0  0  0
    8.7724   -5.6217   22.5656 H   0  0  0  0  0  0
    9.8047   -6.1672   20.4130 H   0  0  0  0  0  0
   11.3462   -5.4672   20.9618 H   0  0  0  0  0  0
   10.7032   -6.9293   21.7469 H   0  0  0  0  0  0
   10.6892   -1.0998   22.7859 H   0  0  0  0  0  0
   10.4113   -0.4014   24.3499 H   0  0  0  0  0  0
    9.2826   -0.2083   20.8107 H   0  0  0  0  0  0
   12.6742   -3.5785   19.4169 H   0  0  0  0  0  0
   12.1761   -4.7086   17.2995 H   0  0  0  0  0  0
  1 13  1  0  0  0
  1 18  1  0  0  0
  1 25  1  0  0  0
  2  6  1  0  0  0
  2  7  2  0  0  0
  3  4  1  0  0  0
  3 10  1  0  0  0
  3 25  1  0  0  0
  3 32  1  0  0  0
  4 26  2  0  0  0
  4 27  1  0  0  0
  5  6  2  0  0  0
  5 27  1  0  0  0
  5 28  1  0  0  0
  6 33  1  0  0  0
  7 31  1  0  0  0
  7 34  1  0  0  0
  8 30  1  0  0  0
  8 31  2  0  0  0
  8 35  1  0  0  0
  9 28  2  0  0  0
  9 29  1  0  0  0
  9 36  1  0  0  0
 10 12  1  0  0  0
 10 15  2  0  0  0
 11 14  1  0  0  0
 11 15  1  0  0  0
 11 16  2  0  0  0
 12 13  1  0  0  0
 12 17  2  0  0  0
 13 37  1  0  0  0
 13 38  1  0  0  0
 15 39  1  0  0  0
 16 17  1  0  0  0
 16 40  1  0  0  0
 17 41  1  0  0  0
 18 19  2  0  0  0
 18 20  2  0  0  0
 18 21  1  0  0  0
 21 22  1  0  0  0
 21 23  1  0  0  0
 22 42  1  0  0  0
 22 43  1  0  0  0
 22 44  1  0  0  0
 23 24  1  0  0  0
 23 45  1  0  0  0
 23 46  1  0  0  0
 24 47  1  0  0  0
 24 48  1  0  0  0
 24 49  1  0  0  0
 25 50  1  0  0  0
 25 51  1  0  0  0
 27 52  1  0  0  0
 28 31  1  0  0  0
 29 30  2  0  0  0
 29 53  1  0  0  0
 30 54  1  0  0  0
M  END
> <s_m_entry_id>
1631

> <s_m_entry_name>
187_ligand

> <s_pdb_PDB_TITLE>
GROUP DEPOSITION SARS-COV-2 MAIN PROTEASE IN COMPLEX WITH INHIBITORS FROM THE COVID MOONSHOT -- CRYSTAL STRUCTURE OF SARS-COV-2 MAIN PROTEASE IN COMPLEX WITH MAT-POS-5CD9EA36-16 (MPRO-P1991)

> <s_pdb_PDB_ID>
7GLN

> <s_m_Source_File>
7gln.pdb.gz

> <s_user_Compound_ID>
MAT-POS-5cd9ea36-16

> <s_user_Monomer-Dimer>
Dimer

> <s_user_xcode>
Mpro-P1991

$$$$
