7GLO_ligand
                    3D
 Schrodinger Suite 2021-2.
 32 34  0  0  1  0            999 V2000
    8.3188   -1.2050   19.7006 N   0  0  0  0  0  0
    7.4456   -0.9766   24.4764 C   0  0  0  0  0  0
    8.4542   -0.6781   23.3854 C   0  0  0  0  0  0
    8.1749   -1.3675   22.0606 C   0  0  0  0  0  0
    7.1861   -1.0597   18.9657 C   0  0  0  0  0  0
    8.4364   -2.3921   17.8402 C   0  0  0  0  0  0
   10.2208   -3.8489   17.1782 C   0  0  0  0  0  0
    9.1720   -2.0506   18.9807 C   0  0  0  0  0  0
    7.6622   -2.4897   22.0079 O   0  0  0  0  0  0
    7.6879   -1.9762   25.4128 C   0  0  0  0  0  0
    6.7227   -2.3285   26.3451 C   0  0  0  0  0  0
    5.4928   -1.6899   26.3529 C   0  0  0  0  0  0
    6.2281   -0.3017   24.5145 C   0  0  0  0  0  0
    5.2672   -0.6773   25.4380 C   0  0  0  0  0  0
    3.7119    0.1123   25.4097 Cl  0  0  0  0  0  0
    8.5614   -0.6743   20.9695 N   0  0  0  0  0  0
    7.1966   -1.7416   17.8456 N   0  0  0  0  0  0
   10.4342   -2.5722   19.2314 C   0  0  0  0  0  0
   10.9527   -3.4761   18.3102 C   0  0  0  0  0  0
    8.9638   -3.3069   16.9283 C   0  0  0  0  0  0
    9.4513   -0.9511   23.7311 H   0  0  0  0  0  0
    8.5071    0.3992   23.2276 H   0  0  0  0  0  0
    6.3871   -0.4276   19.3243 H   0  0  0  0  0  0
   10.6299   -4.5672   16.4830 H   0  0  0  0  0  0
    8.6379   -2.4900   25.4209 H   0  0  0  0  0  0
    6.9283   -3.1034   27.0688 H   0  0  0  0  0  0
    4.7352   -1.9859   27.0633 H   0  0  0  0  0  0
    6.0381    0.5090   23.8266 H   0  0  0  0  0  0
    9.0218    0.2197   21.0635 H   0  0  0  0  0  0
   10.9762   -2.2729   20.1163 H   0  0  0  0  0  0
   11.9353   -3.8914   18.4789 H   0  0  0  0  0  0
    8.3983   -3.5810   16.0499 H   0  0  0  0  0  0
  1  5  1  0  0  0
  1  8  1  0  0  0
  1 16  1  0  0  0
  2  3  1  0  0  0
  2 10  1  0  0  0
  2 13  2  0  0  0
  3  4  1  0  0  0
  3 21  1  0  0  0
  3 22  1  0  0  0
  4  9  2  0  0  0
  4 16  1  0  0  0
  5 17  2  0  0  0
  5 23  1  0  0  0
  6  8  2  0  0  0
  6 17  1  0  0  0
  6 20  1  0  0  0
  7 19  1  0  0  0
  7 20  2  0  0  0
  7 24  1  0  0  0
  8 18  1  0  0  0
 10 11  2  0  0  0
 10 25  1  0  0  0
 11 12  1  0  0  0
 11 26  1  0  0  0
 12 14  2  0  0  0
 12 27  1  0  0  0
 13 14  1  0  0  0
 13 28  1  0  0  0
 14 15  1  0  0  0
 16 29  1  0  0  0
 18 19  2  0  0  0
 18 30  1  0  0  0
 19 31  1  0  0  0
 20 32  1  0  0  0
M  END
> <s_m_entry_id>
1633

> <s_m_entry_name>
189_ligand

> <s_pdb_PDB_TITLE>
GROUP DEPOSITION SARS-COV-2 MAIN PROTEASE IN COMPLEX WITH INHIBITORS FROM THE COVID MOONSHOT -- CRYSTAL STRUCTURE OF SARS-COV-2 MAIN PROTEASE IN COMPLEX WITH JAN-GHE-5A013BED-2 (MPRO-P2001)

> <s_pdb_PDB_ID>
7GLO

> <s_m_Source_File>
7glo.pdb.gz

> <s_user_Compound_ID>
JAN-GHE-5a013bed-2

> <s_user_Monomer-Dimer>
Dimer

> <s_user_xcode>
Mpro-P2001

$$$$
