7GLP_ligand
                    3D
 Schrodinger Suite 2021-2.
 34 36  0  0  1  0            999 V2000
    7.7119   -0.7300   24.1789 C   0  0  0  0  0  0
    9.3593   -3.0340   17.6108 C   0  0  0  0  0  0
    8.1219   -2.8281   16.9497 C   0  0  0  0  0  0
    7.3819   -1.3780   18.5469 C   0  0  0  0  0  0
   10.8336   -2.5087   19.4821 C   0  0  0  0  0  0
   11.7726   -3.3678   18.9825 C   0  0  0  0  0  0
   11.5310   -4.0795   17.8145 C   0  0  0  0  0  0
   10.3564   -3.9225   17.1346 C   0  0  0  0  0  0
    7.3626   -2.0478   26.1742 C   0  0  0  0  0  0
    8.5250   -0.4073   22.9441 C   0  0  0  0  0  0
    8.1678   -1.6512   25.1147 C   0  0  0  0  0  0
    8.2402   -1.3343   21.7788 C   0  0  0  0  0  0
    6.4466   -0.1761   24.3459 C   0  0  0  0  0  0
    5.6494   -0.5926   25.3946 C   0  0  0  0  0  0
    6.0836   -1.5325   26.3094 C   0  0  0  0  0  0
    8.5462   -1.4750   19.3145 C   0  0  0  0  0  0
    9.5905   -2.3203   18.8207 C   0  0  0  0  0  0
    7.1623   -2.0277   17.3945 N   0  0  0  0  0  0
    8.7022   -0.8862   20.5864 N   0  0  0  0  0  0
    7.6349   -2.3994   21.9265 O   0  0  0  0  0  0
    4.0475    0.0811   25.5560 Cl  0  0  0  0  0  0
    7.9137   -3.3399   16.0218 H   0  0  0  0  0  0
    6.5723   -0.7411   18.8717 H   0  0  0  0  0  0
   11.0318   -1.9617   20.3920 H   0  0  0  0  0  0
   12.7133   -3.4984   19.4970 H   0  0  0  0  0  0
   12.2752   -4.7646   17.4358 H   0  0  0  0  0  0
   10.1911   -4.4830   16.2263 H   0  0  0  0  0  0
    7.7328   -2.7604   26.8966 H   0  0  0  0  0  0
    9.5864   -0.4489   23.1887 H   0  0  0  0  0  0
    8.3322    0.6224   22.6428 H   0  0  0  0  0  0
    9.1599   -2.0682   25.0231 H   0  0  0  0  0  0
    6.0912    0.5762   23.6572 H   0  0  0  0  0  0
    5.4493   -1.8667   27.1172 H   0  0  0  0  0  0
    9.2317   -0.0274   20.5404 H   0  0  0  0  0  0
  1 10  1  0  0  0
  1 11  1  0  0  0
  1 13  2  0  0  0
  2  3  1  0  0  0
  2  8  1  0  0  0
  2 17  2  0  0  0
  3 18  2  0  0  0
  3 22  1  0  0  0
  4 16  2  0  0  0
  4 18  1  0  0  0
  4 23  1  0  0  0
  5  6  2  0  0  0
  5 17  1  0  0  0
  5 24  1  0  0  0
  6  7  1  0  0  0
  6 25  1  0  0  0
  7  8  2  0  0  0
  7 26  1  0  0  0
  8 27  1  0  0  0
  9 11  2  0  0  0
  9 15  1  0  0  0
  9 28  1  0  0  0
 10 12  1  0  0  0
 10 29  1  0  0  0
 10 30  1  0  0  0
 11 31  1  0  0  0
 12 19  1  0  0  0
 12 20  2  0  0  0
 13 14  1  0  0  0
 13 32  1  0  0  0
 14 15  2  0  0  0
 14 21  1  0  0  0
 15 33  1  0  0  0
 16 17  1  0  0  0
 16 19  1  0  0  0
 19 34  1  0  0  0
M  END
> <s_m_entry_id>
1635

> <s_m_entry_name>
191_ligand

> <s_pdb_PDB_TITLE>
GROUP DEPOSITION SARS-COV-2 MAIN PROTEASE IN COMPLEX WITH INHIBITORS FROM THE COVID MOONSHOT -- CRYSTAL STRUCTURE OF SARS-COV-2 MAIN PROTEASE IN COMPLEX WITH ADA-UCB-6C2CB422-1 (MPRO-P2005)

> <s_pdb_PDB_ID>
7GLP

> <s_m_Source_File>
7glp.pdb.gz

> <s_user_Compound_ID>
ADA-UCB-6c2cb422-1

> <s_user_Monomer-Dimer>
Dimer

> <s_user_xcode>
Mpro-P2005

$$$$
