7GLQ_ligand
                    3D
 Schrodinger Suite 2021-2.
 32 34  0  0  1  0            999 V2000
    7.1575   -1.8191   17.7827 N   0  0  0  0  0  0
    7.4867   -1.0037   24.5428 C   0  0  0  0  0  0
    8.4918   -0.7577   23.4388 C   0  0  0  0  0  0
    8.1025   -1.4521   22.1460 C   0  0  0  0  0  0
    8.1730   -1.2608   19.7204 C   0  0  0  0  0  0
    7.0576   -1.1197   18.9609 C   0  0  0  0  0  0
    9.0006   -3.2765   16.9106 C   0  0  0  0  0  0
   10.2888   -2.5705   19.2931 C   0  0  0  0  0  0
    7.5166   -2.5350   22.1330 O   0  0  0  0  0  0
    7.7227   -1.9652   25.5188 C   0  0  0  0  0  0
    6.7382   -2.3060   26.4347 C   0  0  0  0  0  0
    5.4985   -1.6869   26.3900 C   0  0  0  0  0  0
    6.2589   -0.3488   24.5293 C   0  0  0  0  0  0
    5.2857   -0.7015   25.4455 C   0  0  0  0  0  0
    3.7609    0.1428   25.4252 Cl  0  0  0  0  0  0
    8.4788   -0.8008   21.0032 N   0  0  0  0  0  0
    9.0302   -2.0754   19.0049 N   0  0  0  0  0  0
    8.3591   -2.4001   17.8233 C   0  0  0  0  0  0
   10.8882   -3.4117   18.4209 C   0  0  0  0  0  0
   10.2336   -3.7757   17.2154 C   0  0  0  0  0  0
    9.4734   -1.1086   23.7574 H   0  0  0  0  0  0
    8.5809    0.3142   23.2619 H   0  0  0  0  0  0
    6.1647   -0.5521   19.1779 H   0  0  0  0  0  0
    8.5130   -3.5430   15.9844 H   0  0  0  0  0  0
   10.7850   -2.2846   20.2088 H   0  0  0  0  0  0
    8.6826   -2.4576   25.5709 H   0  0  0  0  0  0
    6.9360   -3.0562   27.1861 H   0  0  0  0  0  0
    4.7243   -1.9779   27.0845 H   0  0  0  0  0  0
    6.0704    0.4304   23.8055 H   0  0  0  0  0  0
    9.0056    0.0589   21.0620 H   0  0  0  0  0  0
   11.8682   -3.8090   18.6405 H   0  0  0  0  0  0
   10.7236   -4.4568   16.5353 H   0  0  0  0  0  0
  1  6  1  0  0  0
  1 18  2  0  0  0
  2  3  1  0  0  0
  2 10  1  0  0  0
  2 13  2  0  0  0
  3  4  1  0  0  0
  3 21  1  0  0  0
  3 22  1  0  0  0
  4  9  2  0  0  0
  4 16  1  0  0  0
  5  6  2  0  0  0
  5 16  1  0  0  0
  5 17  1  0  0  0
  6 23  1  0  0  0
  7 18  1  0  0  0
  7 20  2  0  0  0
  7 24  1  0  0  0
  8 17  1  0  0  0
  8 19  2  0  0  0
  8 25  1  0  0  0
 10 11  2  0  0  0
 10 26  1  0  0  0
 11 12  1  0  0  0
 11 27  1  0  0  0
 12 14  2  0  0  0
 12 28  1  0  0  0
 13 14  1  0  0  0
 13 29  1  0  0  0
 14 15  1  0  0  0
 16 30  1  0  0  0
 17 18  1  0  0  0
 19 20  1  0  0  0
 19 31  1  0  0  0
 20 32  1  0  0  0
M  END
> <s_m_entry_id>
1637

> <s_m_entry_name>
193_ligand

> <s_pdb_PDB_TITLE>
GROUP DEPOSITION SARS-COV-2 MAIN PROTEASE IN COMPLEX WITH INHIBITORS FROM THE COVID MOONSHOT -- CRYSTAL STRUCTURE OF SARS-COV-2 MAIN PROTEASE IN COMPLEX WITH PET-UNK-8DF914D1-2 (MPRO-P2007)

> <s_pdb_PDB_ID>
7GLQ

> <s_m_Source_File>
7glq.pdb.gz

> <s_user_Compound_ID>
PET-UNK-8df914d1-2

> <s_user_Monomer-Dimer>
Dimer

> <s_user_xcode>
Mpro-P2007

$$$$
