7GLR_ligand
                    3D
 Schrodinger Suite 2021-2.
 33 35  0  0  1  0            999 V2000
    7.1631   -1.9761   17.4390 N   0  0  0  0  0  0
    7.5416   -0.5611   24.1652 C   0  0  0  0  0  0
    8.3224   -0.2007   22.9188 C   0  0  0  0  0  0
    8.2073   -1.2191   21.7997 C   0  0  0  0  0  0
    8.5373   -1.3969   19.3370 C   0  0  0  0  0  0
    7.3683   -1.3111   18.5802 C   0  0  0  0  0  0
    9.3957   -2.9608   17.6558 C   0  0  0  0  0  0
   10.8442   -2.3871   19.5097 C   0  0  0  0  0  0
    6.2266   -0.1314   24.3159 C   0  0  0  0  0  0
    7.7052   -2.3321   21.9773 O   0  0  0  0  0  0
    8.0805   -1.4109   25.1217 C   0  0  0  0  0  0
    7.3065   -1.8795   26.1736 C   0  0  0  0  0  0
    5.9782   -1.5033   26.2854 C   0  0  0  0  0  0
    5.4641   -0.6180   25.3606 C   0  0  0  0  0  0
    3.8034   -0.1083   25.5023 Cl  0  0  0  0  0  0
    8.6707   -0.7871   20.6027 N   0  0  0  0  0  0
    9.6010   -2.2309   18.8568 C   0  0  0  0  0  0
   11.7851   -3.2244   18.9865 C   0  0  0  0  0  0
   11.4903   -3.9157   17.8112 C   0  0  0  0  0  0
   10.3481   -3.8099   17.1457 N   0  0  0  0  0  0
    8.1399   -2.7604   17.0161 C   0  0  0  0  0  0
    9.3726   -0.0647   23.1771 H   0  0  0  0  0  0
    7.9944    0.7735   22.5560 H   0  0  0  0  0  0
    6.6018   -0.6575   18.9697 H   0  0  0  0  0  0
   11.0477   -1.8441   20.4209 H   0  0  0  0  0  0
    5.8071    0.5786   23.6185 H   0  0  0  0  0  0
    9.1145   -1.7153   25.0526 H   0  0  0  0  0  0
    7.7394   -2.5407   26.9099 H   0  0  0  0  0  0
    5.3695   -1.9016   27.0837 H   0  0  0  0  0  0
    9.1872    0.0789   20.5438 H   0  0  0  0  0  0
   12.7378   -3.3426   19.4813 H   0  0  0  0  0  0
   12.2173   -4.5913   17.3853 H   0  0  0  0  0  0
    8.0224   -3.3246   16.1027 H   0  0  0  0  0  0
  1  6  1  0  0  0
  1 21  2  0  0  0
  2  3  1  0  0  0
  2  9  1  0  0  0
  2 11  2  0  0  0
  3  4  1  0  0  0
  3 22  1  0  0  0
  3 23  1  0  0  0
  4 10  2  0  0  0
  4 16  1  0  0  0
  5  6  2  0  0  0
  5 16  1  0  0  0
  5 17  1  0  0  0
  6 24  1  0  0  0
  7 17  1  0  0  0
  7 20  2  0  0  0
  7 21  1  0  0  0
  8 17  2  0  0  0
  8 18  1  0  0  0
  8 25  1  0  0  0
  9 14  2  0  0  0
  9 26  1  0  0  0
 11 12  1  0  0  0
 11 27  1  0  0  0
 12 13  2  0  0  0
 12 28  1  0  0  0
 13 14  1  0  0  0
 13 29  1  0  0  0
 14 15  1  0  0  0
 16 30  1  0  0  0
 18 19  2  0  0  0
 18 31  1  0  0  0
 19 20  1  0  0  0
 19 32  1  0  0  0
 21 33  1  0  0  0
M  END
> <s_m_entry_id>
1639

> <s_m_entry_name>
195_ligand

> <s_pdb_PDB_TITLE>
GROUP DEPOSITION SARS-COV-2 MAIN PROTEASE IN COMPLEX WITH INHIBITORS FROM THE COVID MOONSHOT -- CRYSTAL STRUCTURE OF SARS-COV-2 MAIN PROTEASE IN COMPLEX WITH MIC-UNK-08CD9C58-1 (MPRO-P2010)

> <s_pdb_PDB_ID>
7GLR

> <s_m_Source_File>
7glr.pdb.gz

> <s_user_Compound_ID>
MIC-UNK-08cd9c58-1

> <s_user_Monomer-Dimer>
Dimer

> <s_user_xcode>
Mpro-P2010

$$$$
