7GLS_ligand
                    3D
 Schrodinger Suite 2021-2.
 31 33  0  0  1  0            999 V2000
    8.3370   -1.2187   19.6782 N   0  0  0  0  0  0
    7.1967   -1.8829   17.9888 N   0  0  0  0  0  0
    7.6074   -0.8576   24.4588 C   0  0  0  0  0  0
    8.5686   -0.5320   23.3381 C   0  0  0  0  0  0
    8.2575   -1.2993   22.0659 C   0  0  0  0  0  0
    8.4468   -2.4734   17.9374 C   0  0  0  0  0  0
    9.0016   -3.3728   17.0280 C   0  0  0  0  0  0
   11.0235   -3.4156   18.3624 C   0  0  0  0  0  0
    6.3686   -0.2287   24.5249 C   0  0  0  0  0  0
    7.7730   -2.4315   22.0952 O   0  0  0  0  0  0
    7.9077   -1.8465   25.3897 C   0  0  0  0  0  0
    6.9782   -2.2281   26.3469 C   0  0  0  0  0  0
    5.7272   -1.6337   26.3811 C   0  0  0  0  0  0
    5.4482   -0.6283   25.4747 C   0  0  0  0  0  0
    3.8989    0.1666   25.5341 Cl  0  0  0  0  0  0
    8.5619   -0.6527   20.9254 N   0  0  0  0  0  0
    9.1922   -2.0479   19.0381 C   0  0  0  0  0  0
    7.1325   -1.1200   19.0477 N   0  0  0  0  0  0
   10.4856   -2.5045   19.2644 C   0  0  0  0  0  0
   10.2889   -3.8457   17.2546 C   0  0  0  0  0  0
    9.5866   -0.7566   23.6571 H   0  0  0  0  0  0
    8.5368    0.5381   23.1329 H   0  0  0  0  0  0
    8.4326   -3.6897   16.1663 H   0  0  0  0  0  0
   12.0215   -3.8001   18.5135 H   0  0  0  0  0  0
    6.1299    0.5680   23.8358 H   0  0  0  0  0  0
    8.8745   -2.3280   25.3736 H   0  0  0  0  0  0
    7.2290   -2.9912   27.0690 H   0  0  0  0  0  0
    4.9948   -1.9583   27.1054 H   0  0  0  0  0  0
    8.9652    0.2708   20.9958 H   0  0  0  0  0  0
   11.0699   -2.1726   20.1101 H   0  0  0  0  0  0
   10.7323   -4.5540   16.5703 H   0  0  0  0  0  0
  1 16  1  0  0  0
  1 17  1  0  0  0
  1 18  1  0  0  0
  2  6  1  0  0  0
  2 18  2  0  0  0
  3  4  1  0  0  0
  3  9  1  0  0  0
  3 11  2  0  0  0
  4  5  1  0  0  0
  4 21  1  0  0  0
  4 22  1  0  0  0
  5 10  2  0  0  0
  5 16  1  0  0  0
  6  7  1  0  0  0
  6 17  2  0  0  0
  7 20  2  0  0  0
  7 23  1  0  0  0
  8 19  2  0  0  0
  8 20  1  0  0  0
  8 24  1  0  0  0
  9 14  2  0  0  0
  9 25  1  0  0  0
 11 12  1  0  0  0
 11 26  1  0  0  0
 12 13  2  0  0  0
 12 27  1  0  0  0
 13 14  1  0  0  0
 13 28  1  0  0  0
 14 15  1  0  0  0
 16 29  1  0  0  0
 17 19  1  0  0  0
 19 30  1  0  0  0
 20 31  1  0  0  0
M  END
> <s_m_entry_id>
1641

> <s_m_entry_name>
197_ligand

> <s_pdb_PDB_TITLE>
GROUP DEPOSITION SARS-COV-2 MAIN PROTEASE IN COMPLEX WITH INHIBITORS FROM THE COVID MOONSHOT -- CRYSTAL STRUCTURE OF SARS-COV-2 MAIN PROTEASE IN COMPLEX WITH MAT-POS-BFB445D4-2 (MPRO-P2011)

> <s_pdb_PDB_ID>
7GLS

> <s_m_Source_File>
7gls.pdb.gz

> <s_user_Compound_ID>
MAT-POS-bfb445d4-2

> <s_user_Monomer-Dimer>
Dimer

> <s_user_xcode>
Mpro-P2011

$$$$
