7GLT_ligand
                    3D
 Schrodinger Suite 2021-2.
 57 61  0  0  1  0            999 V2000
    8.6886   -0.9777   20.8556 N   0  0  0  0  0  0
    8.6802   -7.4968   23.5800 N   0  0  0  0  0  0
    9.1683   -2.7012   25.4048 C   0  0  0  0  0  0
    9.9836   -1.0773   23.7077 C   0  0  0  0  0  0
    8.5683   -0.6950   23.2726 C   0  0  1  0  0  0
    8.1593   -1.4580   22.0086 C   0  0  0  0  0  0
    8.4882   -1.4773   19.5473 C   0  0  0  0  0  0
    7.9452   -2.6859   17.1246 C   0  0  0  0  0  0
   11.3777   -4.0035   17.7491 C   0  0  0  0  0  0
   10.7762   -2.5250   19.5356 C   0  0  0  0  0  0
    7.5685   -0.9983   24.3729 C   0  0  0  0  0  0
   10.1500   -5.9785   22.0561 C   0  0  0  0  0  0
   11.6118   -6.4805   21.9121 C   0  0  0  0  0  0
   11.1860   -7.3163   20.7018 C   0  0  0  0  0  0
    9.3353   -6.8219   22.9386 C   0  0  0  0  0  0
    9.9246   -6.4646   20.5979 C   0  0  0  0  0  0
    9.9084   -4.5059   22.3823 C   0  0  0  0  0  0
   10.8978   -3.6586   23.6043 S   0  0  0  0  0  0
   12.0027   -3.0357   22.9482 O   0  0  0  0  0  0
   11.1517   -4.5648   24.6788 O   0  0  0  0  0  0
    9.9576   -2.4684   24.1898 N   0  0  3  0  0  0
    7.8253   -2.0160   25.3058 C   0  0  0  0  0  0
    6.8241   -2.3797   26.2035 C   0  0  0  0  0  0
    5.5997   -1.7412   26.2060 C   0  0  0  0  0  0
    6.3456   -0.3283   24.4097 C   0  0  0  0  0  0
    5.3837   -0.7106   25.3237 C   0  0  0  0  0  0
    3.8675    0.1456   25.3692 Cl  0  0  0  0  0  0
    7.4151   -2.4383   22.0475 O   0  0  0  0  0  0
    9.4986   -2.3070   18.9582 C   0  0  0  0  0  0
   11.6860   -3.3495   18.9361 C   0  0  0  0  0  0
   10.1688   -3.8120   17.1444 C   0  0  0  0  0  0
    9.2031   -2.9510   17.7219 C   0  0  0  0  0  0
    7.0244   -1.8884   17.6509 N   0  0  0  0  0  0
    7.2979   -1.3158   18.8341 C   0  0  0  0  0  0
    9.3011   -0.1749   20.8775 H   0  0  0  0  0  0
    9.7095   -2.3151   26.2691 H   0  0  0  0  0  0
    9.0201   -3.7723   25.5408 H   0  0  0  0  0  0
   10.3055   -0.4187   24.5150 H   0  0  0  0  0  0
   10.6585   -1.0019   22.8551 H   0  0  0  0  0  0
    8.5431    0.3739   23.0615 H   0  0  0  0  0  0
    7.6876   -3.1456   16.1814 H   0  0  0  0  0  0
   12.0972   -4.6703   17.2966 H   0  0  0  0  0  0
   11.0408   -2.0360   20.4621 H   0  0  0  0  0  0
   11.8066   -7.1678   22.7349 H   0  0  0  0  0  0
   12.2113   -5.6483   21.5438 H   0  0  0  0  0  0
   10.8891   -8.2983   21.0690 H   0  0  0  0  0  0
   11.8357   -7.0439   19.8701 H   0  0  0  0  0  0
   10.1448   -5.6290   19.9343 H   0  0  0  0  0  0
    9.0690   -7.1399   20.6031 H   0  0  0  0  0  0
    8.8548   -4.3670   22.6248 H   0  0  0  0  0  0
    9.9270   -3.9332   21.4555 H   0  0  0  0  0  0
    6.9988   -3.1737   26.9138 H   0  0  0  0  0  0
    4.8288   -2.0536   26.8947 H   0  0  0  0  0  0
    6.1548    0.4849   23.7258 H   0  0  0  0  0  0
   12.6537   -3.4905   19.3945 H   0  0  0  0  0  0
    9.9421   -4.3190   16.2176 H   0  0  0  0  0  0
    6.5116   -0.6901   19.2307 H   0  0  0  0  0  0
  1  6  1  0  0  0
  1  7  1  0  0  0
  1 35  1  0  0  0
  2 15  3  0  0  0
  3 21  1  0  0  0
  3 22  1  0  0  0
  3 36  1  0  0  0
  3 37  1  0  0  0
  4  5  1  0  0  0
  4 21  1  0  0  0
  4 38  1  0  0  0
  4 39  1  0  0  0
  5  6  1  0  0  0
  5 11  1  0  0  0
  5 40  1  0  0  0
  6 28  2  0  0  0
  7 29  1  0  0  0
  7 34  2  0  0  0
  8 32  1  0  0  0
  8 33  2  0  0  0
  8 41  1  0  0  0
  9 30  1  0  0  0
  9 31  2  0  0  0
  9 42  1  0  0  0
 10 29  1  0  0  0
 10 30  2  0  0  0
 10 43  1  0  0  0
 11 22  1  0  0  0
 11 25  2  0  0  0
 12 13  1  0  0  0
 12 15  1  0  0  0
 12 16  1  0  0  0
 12 17  1  0  0  0
 13 14  1  0  0  0
 13 44  1  0  0  0
 13 45  1  0  0  0
 14 16  1  0  0  0
 14 46  1  0  0  0
 14 47  1  0  0  0
 16 48  1  0  0  0
 16 49  1  0  0  0
 17 18  1  0  0  0
 17 50  1  0  0  0
 17 51  1  0  0  0
 18 19  2  0  0  0
 18 20  2  0  0  0
 18 21  1  0  0  0
 22 23  2  0  0  0
 23 24  1  0  0  0
 23 52  1  0  0  0
 24 26  2  0  0  0
 24 53  1  0  0  0
 25 26  1  0  0  0
 25 54  1  0  0  0
 26 27  1  0  0  0
 29 32  2  0  0  0
 30 55  1  0  0  0
 31 32  1  0  0  0
 31 56  1  0  0  0
 33 34  1  0  0  0
 34 57  1  0  0  0
M  END
> <s_m_entry_id>
1643

> <s_m_entry_name>
199_ligand

> <s_pdb_PDB_TITLE>
GROUP DEPOSITION SARS-COV-2 MAIN PROTEASE IN COMPLEX WITH INHIBITORS FROM THE COVID MOONSHOT -- CRYSTAL STRUCTURE OF SARS-COV-2 MAIN PROTEASE IN COMPLEX WITH MAT-POS-4223BC15-12 (MPRO-P2017)

> <s_pdb_PDB_ID>
7GLT

> <s_m_Source_File>
7glt.pdb.gz

> <s_user_Compound_ID>
MAT-POS-4223bc15-12

> <s_user_Monomer-Dimer>
Dimer

> <s_user_xcode>
Mpro-P2017

$$$$
