7GLV_ligand
                    3D
 Schrodinger Suite 2021-2.
 49 52  0  0  1  0            999 V2000
    9.6382   -2.8409   24.3086 N   0  0  0  0  0  0
    7.0132   -1.9058   17.6154 N   0  0  0  0  0  0
    8.4728   -0.9101   23.3462 C   0  0  1  0  0  0
    8.0972   -1.6656   22.0672 C   0  0  0  0  0  0
    8.3541   -1.5671   19.6099 C   0  0  0  0  0  0
    7.2319   -1.3436   18.8135 C   0  0  0  0  0  0
    7.9339   -2.7378   17.1470 C   0  0  0  0  0  0
   10.1101   -3.9410   17.3001 C   0  0  0  0  0  0
   10.5779   -2.7350   19.7676 C   0  0  0  0  0  0
    7.3835   -1.1855   24.3579 C   0  0  0  0  0  0
    5.2347   -0.6682   25.2925 C   0  0  0  0  0  0
    7.4336   -2.3294   25.1627 C   0  0  0  0  0  0
    8.5771   -3.2543   25.0727 C   0  0  0  0  0  0
    8.5286   -4.3699   25.5500 O   0  0  0  0  0  0
   10.8387   -3.6514   24.2446 C   0  0  0  0  0  0
   10.8020   -4.8677   23.3308 C   0  0  0  0  0  0
   11.7414   -5.6585   23.3185 O   0  0  0  0  0  0
    9.7455   -5.0137   22.5384 N   0  0  0  0  0  0
    9.7112   -5.9837   21.4579 C   0  0  0  0  0  0
    6.3577   -2.6442   25.9967 C   0  0  0  0  0  0
    5.2536   -1.8144   26.0582 C   0  0  0  0  0  0
    3.8652    0.3991   25.3942 Cl  0  0  0  0  0  0
    6.2785   -0.3412   24.4486 C   0  0  0  0  0  0
    9.8021   -1.4557   23.8626 C   0  0  0  0  0  0
    7.5316   -2.7590   22.0912 O   0  0  0  0  0  0
    8.4933   -1.0707   20.9222 N   0  0  0  0  0  0
    9.3589   -2.4495   19.0965 C   0  0  0  0  0  0
   11.5078   -3.5705   19.2104 C   0  0  0  0  0  0
   11.2687   -4.1789   17.9820 C   0  0  0  0  0  0
    9.1307   -3.0621   17.8291 C   0  0  0  0  0  0
    8.5506    0.1592   23.1501 H   0  0  0  0  0  0
    6.5076   -0.6592   19.2296 H   0  0  0  0  0  0
    7.7933   -3.2152   16.1879 H   0  0  0  0  0  0
    9.9333   -4.4237   16.3497 H   0  0  0  0  0  0
   10.7814   -2.2907   20.7312 H   0  0  0  0  0  0
   11.1114   -3.9668   25.2514 H   0  0  0  0  0  0
   11.6836   -3.0200   23.9682 H   0  0  0  0  0  0
    8.9276   -4.4381   22.6774 H   0  0  0  0  0  0
    8.7506   -5.9256   20.9460 H   0  0  0  0  0  0
   10.5129   -5.7690   20.7511 H   0  0  0  0  0  0
    9.8443   -6.9859   21.8641 H   0  0  0  0  0  0
    6.3849   -3.5401   26.5984 H   0  0  0  0  0  0
    4.4140   -2.0533   26.6943 H   0  0  0  0  0  0
    6.2415    0.5635   23.8608 H   0  0  0  0  0  0
   10.5452   -1.4163   23.0660 H   0  0  0  0  0  0
   10.1471   -0.8433   24.6966 H   0  0  0  0  0  0
    8.9453   -0.1675   20.9527 H   0  0  0  0  0  0
   12.4374   -3.7625   19.7252 H   0  0  0  0  0  0
   12.0108   -4.8454   17.5682 H   0  0  0  0  0  0
  1 13  1  0  0  0
  1 15  1  0  0  0
  1 24  1  0  0  0
  2  6  1  0  0  0
  2  7  2  0  0  0
  3  4  1  0  0  0
  3 10  1  0  0  0
  3 24  1  0  0  0
  3 31  1  0  0  0
  4 25  2  0  0  0
  4 26  1  0  0  0
  5  6  2  0  0  0
  5 26  1  0  0  0
  5 27  1  0  0  0
  6 32  1  0  0  0
  7 30  1  0  0  0
  7 33  1  0  0  0
  8 29  1  0  0  0
  8 30  2  0  0  0
  8 34  1  0  0  0
  9 27  2  0  0  0
  9 28  1  0  0  0
  9 35  1  0  0  0
 10 12  1  0  0  0
 10 23  2  0  0  0
 11 21  2  0  0  0
 11 22  1  0  0  0
 11 23  1  0  0  0
 12 13  1  0  0  0
 12 20  2  0  0  0
 13 14  2  0  0  0
 15 16  1  0  0  0
 15 36  1  0  0  0
 15 37  1  0  0  0
 16 17  2  0  0  0
 16 18  1  0  0  0
 18 19  1  0  0  0
 18 38  1  0  0  0
 19 39  1  0  0  0
 19 40  1  0  0  0
 19 41  1  0  0  0
 20 21  1  0  0  0
 20 42  1  0  0  0
 21 43  1  0  0  0
 23 44  1  0  0  0
 24 45  1  0  0  0
 24 46  1  0  0  0
 26 47  1  0  0  0
 27 30  1  0  0  0
 28 29  2  0  0  0
 28 48  1  0  0  0
 29 49  1  0  0  0
M  END
> <s_m_entry_id>
1645

> <s_m_entry_name>
203_ligand

> <s_pdb_PDB_TITLE>
GROUP DEPOSITION SARS-COV-2 MAIN PROTEASE IN COMPLEX WITH INHIBITORS FROM THE COVID MOONSHOT -- CRYSTAL STRUCTURE OF SARS-COV-2 MAIN PROTEASE IN COMPLEX WITH MAT-POS-A54CE14D-2 (MPRO-P2031)

> <s_pdb_PDB_ID>
7GLV

> <s_m_Source_File>
7glv.pdb.gz

> <s_user_Compound_ID>
MAT-POS-a54ce14d-2

> <s_user_Monomer-Dimer>
Dimer

> <s_user_xcode>
Mpro-P2031

$$$$
