7GLW_ligand
                    3D
 Schrodinger Suite 2021-2.
 43 46  0  0  1  0            999 V2000
    8.5182   -1.2143   21.3720 N   0  0  0  0  0  0
    5.9002   -2.5636   26.5333 C   0  0  0  0  0  0
    4.7082   -1.8890   26.3441 C   0  0  0  0  0  0
    4.6450   -0.8855   25.3977 C   0  0  0  0  0  0
    5.7313   -0.5494   24.6119 C   0  0  0  0  0  0
    6.9366   -1.2375   24.7619 C   0  0  0  0  0  0
    8.3536   -1.6111   20.0225 C   0  0  0  0  0  0
    9.1552   -2.8539   18.0697 C   0  0  0  0  0  0
   11.3288   -3.9147   18.0729 C   0  0  0  0  0  0
   10.6168   -2.7102   20.0188 C   0  0  0  0  0  0
    6.9666   -2.5268   22.3777 O   0  0  0  0  0  0
    7.8096   -1.6469   22.4455 C   0  0  0  0  0  0
    8.0823   -0.9309   23.7889 C   0  0  2  0  0  0
    3.1508   -0.0150   25.1797 Cl  0  0  0  0  0  0
    7.0007   -2.2344   25.7548 C   0  0  0  0  0  0
    8.4959   -3.1016   26.0549 S   0  0  0  0  0  0
    8.2187   -4.5025   26.1393 O   0  0  0  0  0  0
    9.2015   -2.4705   27.1285 O   0  0  0  0  0  0
    9.3303   -2.8327   24.6823 N   0  0  3  0  0  0
    9.4473   -1.4074   24.3412 C   0  0  0  0  0  0
    8.1350    0.5887   23.5394 C   0  0  0  0  0  0
    9.3821   -2.3851   19.3966 C   0  0  0  0  0  0
   11.5633   -3.4495   19.3635 C   0  0  0  0  0  0
   10.1532   -3.6348   17.4341 C   0  0  0  0  0  0
    7.9261   -2.5097   17.4491 C   0  0  0  0  0  0
    6.9750   -1.7856   18.0276 N   0  0  0  0  0  0
    7.1998   -1.3534   19.2794 C   0  0  0  0  0  0
    9.2269   -0.5374   21.6166 H   0  0  0  0  0  0
    5.9690   -3.3391   27.2818 H   0  0  0  0  0  0
    3.8411   -2.1492   26.9331 H   0  0  0  0  0  0
    5.6464    0.2439   23.8839 H   0  0  0  0  0  0
   12.0795   -4.5032   17.5663 H   0  0  0  0  0  0
   10.8201   -2.3727   21.0244 H   0  0  0  0  0  0
    9.7067   -3.6107   24.1595 H   0  0  0  0  0  0
    9.6946   -0.8388   25.2377 H   0  0  0  0  0  0
   10.2131   -1.2789   23.5763 H   0  0  0  0  0  0
    8.9469    0.8160   22.8485 H   0  0  0  0  0  0
    7.1895    0.9200   23.1098 H   0  0  0  0  0  0
    8.3060    1.1067   24.4832 H   0  0  0  0  0  0
   12.4986   -3.6715   19.8560 H   0  0  0  0  0  0
    9.9881   -4.0142   16.4364 H   0  0  0  0  0  0
    7.7179   -2.8410   16.4424 H   0  0  0  0  0  0
    6.4019   -0.7647   19.7075 H   0  0  0  0  0  0
  1  7  1  0  0  0
  1 12  1  0  0  0
  1 28  1  0  0  0
  2  3  1  0  0  0
  2 15  2  0  0  0
  2 29  1  0  0  0
  3  4  2  0  0  0
  3 30  1  0  0  0
  4  5  1  0  0  0
  4 14  1  0  0  0
  5  6  2  0  0  0
  5 31  1  0  0  0
  6 13  1  0  0  0
  6 15  1  0  0  0
  7 22  1  0  0  0
  7 27  2  0  0  0
  8 22  1  0  0  0
  8 24  2  0  0  0
  8 25  1  0  0  0
  9 23  2  0  0  0
  9 24  1  0  0  0
  9 32  1  0  0  0
 10 22  2  0  0  0
 10 23  1  0  0  0
 10 33  1  0  0  0
 11 12  2  0  0  0
 12 13  1  0  0  0
 13 20  1  0  0  0
 13 21  1  0  0  0
 15 16  1  0  0  0
 16 17  2  0  0  0
 16 18  2  0  0  0
 16 19  1  0  0  0
 19 20  1  0  0  0
 19 34  1  0  0  0
 20 35  1  0  0  0
 20 36  1  0  0  0
 21 37  1  0  0  0
 21 38  1  0  0  0
 21 39  1  0  0  0
 23 40  1  0  0  0
 24 41  1  0  0  0
 25 26  2  0  0  0
 25 42  1  0  0  0
 26 27  1  0  0  0
 27 43  1  0  0  0
M  END
> <s_m_entry_id>
1647

> <s_m_entry_name>
205_ligand

> <s_pdb_PDB_TITLE>
GROUP DEPOSITION SARS-COV-2 MAIN PROTEASE IN COMPLEX WITH INHIBITORS FROM THE COVID MOONSHOT -- CRYSTAL STRUCTURE OF SARS-COV-2 MAIN PROTEASE IN COMPLEX WITH ALP-POS-1CBC2FAE-1 (MPRO-P2036)

> <s_pdb_PDB_ID>
7GLW

> <s_m_Source_File>
7glw.pdb.gz

> <s_user_Compound_ID>
ALP-POS-1cbc2fae-1

> <s_user_Monomer-Dimer>
Dimer

> <s_user_xcode>
Mpro-P2036

$$$$
