7GLZ_ligand
                    3D
 Schrodinger Suite 2021-2.
 53 56  0  0  1  0            999 V2000
    9.8978   -2.5883   24.0947 N   0  0  2  0  0  0
    7.0345   -2.0840   17.6328 N   0  0  0  0  0  0
    9.9499   -1.1808   23.6816 C   0  0  0  0  0  0
    8.5478   -0.7354   23.2626 C   0  0  1  0  0  0
    8.1021   -1.5102   22.0181 C   0  0  0  0  0  0
    8.4356   -1.5840   19.5588 C   0  0  0  0  0  0
    7.2535   -1.4919   18.8177 C   0  0  0  0  0  0
    9.2740   -3.0131   17.7541 C   0  0  0  0  0  0
   11.7033   -3.3824   19.0933 C   0  0  0  0  0  0
    9.4992   -2.3678   19.0046 C   0  0  0  0  0  0
    6.3462   -0.3260   24.4249 C   0  0  0  0  0  0
    6.8812   -2.2832   26.3135 C   0  0  0  0  0  0
    7.8435   -1.9885   25.3474 C   0  0  0  0  0  0
    9.1743   -2.7121   25.3681 C   0  0  0  0  0  0
    3.8670    0.1461   25.3712 Cl  0  0  0  0  0  0
    5.4095   -0.6610   25.3819 C   0  0  0  0  0  0
    5.6583   -1.6347   26.3235 C   0  0  0  0  0  0
   11.2044   -3.2829   24.0726 C   0  0  1  0  0  0
   12.0107   -3.5090   25.3469 C   0  0  0  0  0  0
   11.2459   -4.5023   23.1382 C   0  0  0  0  0  0
   12.2794   -5.1579   23.0068 O   0  0  0  0  0  0
   10.1160   -4.7917   22.4968 N   0  0  0  0  0  0
   10.0177   -5.9084   21.5734 C   0  0  0  0  0  0
    7.5618   -1.0074   24.3817 C   0  0  0  0  0  0
    7.4236   -2.5366   22.0908 O   0  0  0  0  0  0
    8.5977   -1.0350   20.8502 N   0  0  0  0  0  0
   10.7486   -2.5764   19.6512 C   0  0  0  0  0  0
   11.4755   -4.0131   17.8769 C   0  0  0  0  0  0
   10.2918   -3.8402   17.2126 C   0  0  0  0  0  0
    8.0180   -2.8179   17.1240 C   0  0  0  0  0  0
   10.6318   -1.0754   22.8376 H   0  0  0  0  0  0
   10.2906   -0.5693   24.5174 H   0  0  0  0  0  0
    8.5579    0.3319   23.0405 H   0  0  0  0  0  0
    6.4811   -0.8871   19.2702 H   0  0  0  0  0  0
   12.6456   -3.5336   19.5995 H   0  0  0  0  0  0
    6.1352    0.4602   23.7149 H   0  0  0  0  0  0
    7.0852   -3.0277   27.0690 H   0  0  0  0  0  0
    9.7904   -2.3148   26.1752 H   0  0  0  0  0  0
    9.0102   -3.7666   25.5905 H   0  0  0  0  0  0
    4.9151   -1.8946   27.0629 H   0  0  0  0  0  0
   11.8289   -2.5684   23.5364 H   0  0  0  0  0  0
   12.9342   -4.0356   25.1047 H   0  0  0  0  0  0
   12.2498   -2.5475   25.8018 H   0  0  0  0  0  0
   11.4255   -4.1058   26.0465 H   0  0  0  0  0  0
    9.2918   -4.2268   22.6456 H   0  0  0  0  0  0
    9.0072   -5.9568   21.1670 H   0  0  0  0  0  0
   10.7299   -5.7715   20.7596 H   0  0  0  0  0  0
   10.2422   -6.8365   22.0995 H   0  0  0  0  0  0
    9.1553   -0.1927   20.8439 H   0  0  0  0  0  0
   10.9388   -2.0879   20.5957 H   0  0  0  0  0  0
   12.2367   -4.6472   17.4464 H   0  0  0  0  0  0
   10.1358   -4.3402   16.2678 H   0  0  0  0  0  0
    7.8868   -3.3114   16.1720 H   0  0  0  0  0  0
  1  3  1  0  0  0
  1 14  1  0  0  0
  1 18  1  0  0  0
  2  7  1  0  0  0
  2 30  2  0  0  0
  3  4  1  0  0  0
  3 31  1  0  0  0
  3 32  1  0  0  0
  4  5  1  0  0  0
  4 24  1  0  0  0
  4 33  1  0  0  0
  5 25  2  0  0  0
  5 26  1  0  0  0
  6  7  2  0  0  0
  6 10  1  0  0  0
  6 26  1  0  0  0
  7 34  1  0  0  0
  8 10  1  0  0  0
  8 29  2  0  0  0
  8 30  1  0  0  0
  9 27  1  0  0  0
  9 28  2  0  0  0
  9 35  1  0  0  0
 10 27  2  0  0  0
 11 16  1  0  0  0
 11 24  2  0  0  0
 11 36  1  0  0  0
 12 13  2  0  0  0
 12 17  1  0  0  0
 12 37  1  0  0  0
 13 14  1  0  0  0
 13 24  1  0  0  0
 14 38  1  0  0  0
 14 39  1  0  0  0
 15 16  1  0  0  0
 16 17  2  0  0  0
 17 40  1  0  0  0
 18 19  1  0  0  0
 18 20  1  0  0  0
 18 41  1  0  0  0
 19 42  1  0  0  0
 19 43  1  0  0  0
 19 44  1  0  0  0
 20 21  2  0  0  0
 20 22  1  0  0  0
 22 23  1  0  0  0
 22 45  1  0  0  0
 23 46  1  0  0  0
 23 47  1  0  0  0
 23 48  1  0  0  0
 26 49  1  0  0  0
 27 50  1  0  0  0
 28 29  1  0  0  0
 28 51  1  0  0  0
 29 52  1  0  0  0
 30 53  1  0  0  0
M  END
> <s_m_entry_id>
1649

> <s_m_entry_name>
211_ligand

> <s_pdb_PDB_TITLE>
GROUP DEPOSITION SARS-COV-2 MAIN PROTEASE IN COMPLEX WITH INHIBITORS FROM THE COVID MOONSHOT -- CRYSTAL STRUCTURE OF SARS-COV-2 MAIN PROTEASE IN COMPLEX WITH MAT-POS-5CD9EA36-14 (MPRO-P2067)

> <s_pdb_PDB_ID>
7GLZ

> <s_m_Source_File>
7glz.pdb.gz

> <s_user_Compound_ID>
MAT-POS-5cd9ea36-14

> <s_user_Monomer-Dimer>
Dimer

> <s_user_xcode>
Mpro-P2067

$$$$
