7GM0_ligand
                    3D
 Schrodinger Suite 2021-2.
 54 58  0  0  1  0            999 V2000
   11.1470   -3.3404   18.3563 N   0  0  0  0  0  0
    8.6243   -1.0865   21.2210 N   0  0  0  0  0  0
    7.1643   -1.2754   19.2733 C   0  0  0  0  0  0
    8.4010   -1.5007   19.8778 C   0  0  0  0  0  0
    8.0604   -1.6616   22.3151 C   0  0  0  0  0  0
    8.4399   -1.0150   23.6500 C   0  0  2  0  0  0
    9.7588   -1.6170   24.1380 C   0  0  0  0  0  0
    7.4009   -2.3155   25.5688 C   0  0  0  0  0  0
    5.1123   -0.7606   25.4532 C   0  0  0  0  0  0
    7.3305   -1.2418   24.6634 C   0  0  0  0  0  0
    9.9471   -6.0721   21.7848 C   0  0  0  0  0  0
    9.3484   -7.3378   22.2197 C   0  0  0  0  0  0
    9.3407   -2.2423   19.1464 C   0  0  0  0  0  0
    8.8477   -8.2967   22.5768 N   0  0  0  0  0  0
   10.2494   -5.9438   20.3067 C   0  0  0  0  0  0
   11.3665   -6.1311   21.2635 C   0  0  0  0  0  0
    9.4191   -4.8985   22.6044 C   0  0  0  0  0  0
   10.3287   -4.3080   24.0213 S   0  0  0  0  0  0
   11.6095   -3.8495   23.5863 O   0  0  0  0  0  0
   10.2578   -5.3060   25.0406 O   0  0  0  0  0  0
    9.5145   -3.0080   24.5645 N   0  0  3  0  0  0
    8.6485   -3.1501   25.7384 C   0  0  0  0  0  0
    6.1806   -0.4489   24.6328 C   0  0  0  0  0  0
    3.6718    0.2149   25.3824 Cl  0  0  0  0  0  0
    5.1504   -1.8360   26.3081 C   0  0  0  0  0  0
    6.2981   -2.6017   26.3702 C   0  0  0  0  0  0
    7.3215   -2.6420   22.2558 O   0  0  0  0  0  0
    6.8235   -1.7488   18.0661 N   0  0  0  0  0  0
    7.7257   -2.4777   17.4010 C   0  0  0  0  0  0
   10.6363   -2.6097   19.3910 N   0  0  0  0  0  0
   11.4866   -2.3309   20.5415 C   0  0  0  0  0  0
    9.0122   -2.7660   17.8744 C   0  0  0  0  0  0
   10.1877   -3.4416   17.4619 C   0  0  0  0  0  0
    9.2416   -0.3108   21.4143 H   0  0  0  0  0  0
    6.4137   -0.6883   19.7817 H   0  0  0  0  0  0
    8.5718    0.0568   23.5012 H   0  0  0  0  0  0
   10.1314   -1.0382   24.9832 H   0  0  0  0  0  0
   10.4844   -1.6089   23.3246 H   0  0  0  0  0  0
   10.2680   -4.8570   20.2239 H   0  0  0  0  0  0
   10.0995   -6.9805   20.0050 H   0  0  0  0  0  0
   11.4834   -7.2124   21.1898 H   0  0  0  0  0  0
   11.6519   -5.0892   21.4087 H   0  0  0  0  0  0
    8.3936   -5.1113   22.9064 H   0  0  0  0  0  0
    9.2231   -4.0602   21.9357 H   0  0  0  0  0  0
    8.3711   -4.1972   25.8602 H   0  0  0  0  0  0
    9.1863   -2.8224   26.6282 H   0  0  0  0  0  0
    6.1236    0.4039   23.9725 H   0  0  0  0  0  0
    4.2910   -2.0713   26.9184 H   0  0  0  0  0  0
    6.3308   -3.4353   27.0561 H   0  0  0  0  0  0
    7.4810   -2.8870   16.4319 H   0  0  0  0  0  0
   10.9303   -1.7419   21.2708 H   0  0  0  0  0  0
   11.8014   -3.2697   20.9973 H   0  0  0  0  0  0
   12.3648   -1.7722   20.2180 H   0  0  0  0  0  0
   10.3571   -3.9918   16.5480 H   0  0  0  0  0  0
  1 30  1  0  0  0
  1 33  2  0  0  0
  2  4  1  0  0  0
  2  5  1  0  0  0
  2 34  1  0  0  0
  3  4  2  0  0  0
  3 28  1  0  0  0
  3 35  1  0  0  0
  4 13  1  0  0  0
  5  6  1  0  0  0
  5 27  2  0  0  0
  6  7  1  0  0  0
  6 10  1  0  0  0
  6 36  1  0  0  0
  7 21  1  0  0  0
  7 37  1  0  0  0
  7 38  1  0  0  0
  8 10  1  0  0  0
  8 22  1  0  0  0
  8 26  2  0  0  0
  9 23  1  0  0  0
  9 24  1  0  0  0
  9 25  2  0  0  0
 10 23  2  0  0  0
 11 12  1  0  0  0
 11 15  1  0  0  0
 11 16  1  0  0  0
 11 17  1  0  0  0
 12 14  3  0  0  0
 13 30  1  0  0  0
 13 32  2  0  0  0
 15 16  1  0  0  0
 15 39  1  0  0  0
 15 40  1  0  0  0
 16 41  1  0  0  0
 16 42  1  0  0  0
 17 18  1  0  0  0
 17 43  1  0  0  0
 17 44  1  0  0  0
 18 19  2  0  0  0
 18 20  2  0  0  0
 18 21  1  0  0  0
 21 22  1  0  0  0
 22 45  1  0  0  0
 22 46  1  0  0  0
 23 47  1  0  0  0
 25 26  1  0  0  0
 25 48  1  0  0  0
 26 49  1  0  0  0
 28 29  2  0  0  0
 29 32  1  0  0  0
 29 50  1  0  0  0
 30 31  1  0  0  0
 31 51  1  0  0  0
 31 52  1  0  0  0
 31 53  1  0  0  0
 32 33  1  0  0  0
 33 54  1  0  0  0
M  END
> <s_m_entry_id>
1651

> <s_m_entry_name>
213_ligand

> <s_pdb_PDB_TITLE>
GROUP DEPOSITION SARS-COV-2 MAIN PROTEASE IN COMPLEX WITH INHIBITORS FROM THE COVID MOONSHOT -- CRYSTAL STRUCTURE OF SARS-COV-2 MAIN PROTEASE IN COMPLEX WITH MAT-POS-BFD29AAC-1 (MPRO-P2070)

> <s_pdb_PDB_ID>
7GM0

> <s_m_Source_File>
7gm0.pdb.gz

> <s_user_Compound_ID>
MAT-POS-bfd29aac-1

> <s_user_Monomer-Dimer>
Dimer

> <s_user_xcode>
Mpro-P2070

$$$$
