7GNF_ligand
                    3D
 Schrodinger Suite 2021-2.
 47 50  0  0  1  0            999 V2000
    8.4133   -1.2531   21.3993 N   0  0  0  0  0  0
    5.7806   -2.6518   26.5858 C   0  0  0  0  0  0
    4.6020   -1.9473   26.4097 C   0  0  0  0  0  0
    4.5566   -0.9292   25.4741 C   0  0  0  0  0  0
    5.6570   -0.5893   24.7100 C   0  0  0  0  0  0
    6.8422   -1.3139   24.8389 C   0  0  0  0  0  0
    8.3012   -1.7069   20.0593 C   0  0  0  0  0  0
    9.0530   -2.8527   18.0722 C   0  0  0  0  0  0
   10.9664   -4.4849   18.2050 C   0  0  0  0  0  0
   10.4952   -2.9658   20.1668 C   0  0  0  0  0  0
    6.9087   -2.6417   22.3568 O   0  0  0  0  0  0
    7.7105   -1.7255   22.4559 C   0  0  0  0  0  0
    7.9613   -1.0384   23.8260 C   0  0  2  0  0  0
    3.0483   -0.0957   25.1929 Cl  0  0  0  0  0  0
    6.8860   -2.3366   25.8051 C   0  0  0  0  0  0
    8.3623   -3.2451   26.0773 S   0  0  0  0  0  0
    8.0502   -4.6347   26.2059 O   0  0  0  0  0  0
    9.1205   -2.6074   27.1128 O   0  0  0  0  0  0
    9.1606   -3.0343   24.6732 N   0  0  3  0  0  0
    9.3156   -1.6217   24.2996 C   0  0  0  0  0  0
    8.1126    0.4887   23.6609 C   0  0  0  0  0  0
    9.2775   -2.4818   19.4076 C   0  0  0  0  0  0
   11.5625   -3.6081   19.2885 C   0  0  0  0  0  0
   10.0602   -3.6744   17.3054 C   0  0  0  0  0  0
    7.8696   -2.4509   17.4800 C   0  0  0  0  0  0
    6.9197   -1.7394   18.0922 N   0  0  0  0  0  0
    7.1443   -1.3701   19.3589 C   0  0  0  0  0  0
    9.0624   -0.5144   21.6297 H   0  0  0  0  0  0
    5.8346   -3.4379   27.3244 H   0  0  0  0  0  0
    3.7317   -2.1949   26.9993 H   0  0  0  0  0  0
    5.5981    0.2356   24.0152 H   0  0  0  0  0  0
   10.3950   -5.2915   18.6642 H   0  0  0  0  0  0
   11.7683   -4.9243   17.6116 H   0  0  0  0  0  0
   10.1843   -3.6746   20.9343 H   0  0  0  0  0  0
   10.9330   -2.1326   20.7164 H   0  0  0  0  0  0
    9.4921   -3.8357   24.1555 H   0  0  0  0  0  0
    9.6737   -1.0559   25.1596 H   0  0  0  0  0  0
   10.0480   -1.5369   23.4968 H   0  0  0  0  0  0
    8.9052    0.7003   22.9431 H   0  0  0  0  0  0
    7.1744    0.9104   23.3001 H   0  0  0  0  0  0
    8.3652    0.9354   24.6225 H   0  0  0  0  0  0
   12.1716   -2.8291   18.8301 H   0  0  0  0  0  0
   12.2322   -4.2036   19.9090 H   0  0  0  0  0  0
   10.6644   -3.0162   16.6810 H   0  0  0  0  0  0
    9.5370   -4.3427   16.6216 H   0  0  0  0  0  0
    7.6642   -2.7120   16.4524 H   0  0  0  0  0  0
    6.3747   -0.7830   19.8379 H   0  0  0  0  0  0
  1  7  1  0  0  0
  1 12  1  0  0  0
  1 28  1  0  0  0
  2  3  1  0  0  0
  2 15  2  0  0  0
  2 29  1  0  0  0
  3  4  2  0  0  0
  3 30  1  0  0  0
  4  5  1  0  0  0
  4 14  1  0  0  0
  5  6  2  0  0  0
  5 31  1  0  0  0
  6 13  1  0  0  0
  6 15  1  0  0  0
  7 22  1  0  0  0
  7 27  2  0  0  0
  8 22  2  0  0  0
  8 24  1  0  0  0
  8 25  1  0  0  0
  9 23  1  0  0  0
  9 24  1  0  0  0
  9 32  1  0  0  0
  9 33  1  0  0  0
 10 22  1  0  0  0
 10 23  1  0  0  0
 10 34  1  0  0  0
 10 35  1  0  0  0
 11 12  2  0  0  0
 12 13  1  0  0  0
 13 20  1  0  0  0
 13 21  1  0  0  0
 15 16  1  0  0  0
 16 17  2  0  0  0
 16 18  2  0  0  0
 16 19  1  0  0  0
 19 20  1  0  0  0
 19 36  1  0  0  0
 20 37  1  0  0  0
 20 38  1  0  0  0
 21 39  1  0  0  0
 21 40  1  0  0  0
 21 41  1  0  0  0
 23 42  1  0  0  0
 23 43  1  0  0  0
 24 44  1  0  0  0
 24 45  1  0  0  0
 25 26  2  0  0  0
 25 46  1  0  0  0
 26 27  1  0  0  0
 27 47  1  0  0  0
M  END
> <s_m_entry_id>
1855

> <s_m_entry_name>
7gnf.pdb.1_A_ligand

> <s_pdb_PDB_TITLE>
GROUP DEPOSITION SARS-COV-2 MAIN PROTEASE IN COMPLEX WITH INHIBITORS FROM THE COVID MOONSHOT -- CRYSTAL STRUCTURE OF SARS-COV-2 MAIN PROTEASE IN COMPLEX WITH MIK-ENA-5D9157E9-5 (MPRO-P2606)

> <s_pdb_PDB_ID>
7GNF

> <s_m_Source_File>
7gnf.pdb.gz

> <s_user_Compound_ID>
MIK-ENA-5d9157e9-5

> <s_user_Monomer-Dimer>
Dimer

> <s_user_xcode>
Mpro-P2606

$$$$
