7GNG_ligand
                    3D
 Schrodinger Suite 2021-2.
 58 62  0  0  1  0            999 V2000
    9.3335   -3.1728   24.8065 N   0  0  1  0  0  0
    6.9626   -1.7404   18.0252 N   0  0  0  0  0  0
    7.2256   -2.3224   25.8127 C   0  0  0  0  0  0
    6.1256   -2.5608   26.6393 C   0  0  0  0  0  0
    4.9518   -1.8436   26.4898 C   0  0  0  0  0  0
    4.8865   -0.8620   25.5223 C   0  0  0  0  0  0
    5.9612   -0.5818   24.6994 C   0  0  0  0  0  0
    8.2316   -1.2272   23.7573 C   0  0  1  0  0  0
    7.8776   -2.0223   22.4946 C   0  0  0  0  0  0
    7.1519   -1.3722   19.2968 C   0  0  0  0  0  0
    9.0278   -2.9769   18.1146 C   0  0  0  0  0  0
   11.4815   -3.7393   19.4232 C   0  0  0  0  0  0
   10.3583   -3.1659   20.2753 C   0  0  0  0  0  0
    9.2109   -2.6105   19.4597 C   0  0  0  0  0  0
    7.2791   -3.0826   22.4579 O   0  0  0  0  0  0
    8.3390   -1.3357   21.4129 N   0  0  0  0  0  0
    8.2493   -1.7770   20.0493 C   0  0  0  0  0  0
   10.9289   -4.6301   18.3209 C   0  0  0  0  0  0
   10.0320   -3.8430   17.3928 C   0  0  0  0  0  0
    7.8973   -2.5155   17.4669 C   0  0  0  0  0  0
    8.8972   -0.0174   21.7686 C   0  0  0  0  0  0
    8.4164    0.2040   23.2008 C   0  0  0  0  0  0
    7.1265   -1.3422   24.8126 C   0  0  0  0  0  0
    3.3845   -0.0078   25.2692 Cl  0  0  0  0  0  0
    8.5072   -3.1046   26.0245 C   0  0  0  0  0  0
    9.5664   -1.8290   24.2746 C   0  0  0  0  0  0
   10.5397   -3.9822   24.9871 C   0  0  0  0  0  0
   10.8275   -4.9622   23.8581 C   0  0  0  0  0  0
   11.9681   -5.1100   23.4223 O   0  0  0  0  0  0
    9.7921   -5.6386   23.3764 N   0  0  0  0  0  0
    9.9148   -6.5424   22.2480 C   0  0  0  0  0  0
    6.1828   -3.3151   27.4101 H   0  0  0  0  0  0
    4.1047   -2.0558   27.1253 H   0  0  0  0  0  0
    5.8944    0.2189   23.9776 H   0  0  0  0  0  0
    6.4338   -0.7308   19.7859 H   0  0  0  0  0  0
   12.1560   -4.3184   20.0539 H   0  0  0  0  0  0
   12.0524   -2.9240   18.9790 H   0  0  0  0  0  0
   10.7569   -2.3823   20.9197 H   0  0  0  0  0  0
    9.9840   -3.9379   20.9477 H   0  0  0  0  0  0
   10.3625   -5.4486   18.7653 H   0  0  0  0  0  0
   11.7544   -5.0576   17.7517 H   0  0  0  0  0  0
   10.6440   -3.2203   16.7403 H   0  0  0  0  0  0
    9.5065   -4.5297   16.7291 H   0  0  0  0  0  0
    7.7976   -2.8249   16.4370 H   0  0  0  0  0  0
    8.4630    0.7443   21.1210 H   0  0  0  0  0  0
    9.9857   -0.0724   21.7584 H   0  0  0  0  0  0
    9.1955    0.7135   23.7679 H   0  0  0  0  0  0
    7.4517    0.7112   23.1829 H   0  0  0  0  0  0
    9.0832   -2.6456   26.8280 H   0  0  0  0  0  0
    8.2647   -4.1146   26.3549 H   0  0  0  0  0  0
   10.2827   -1.8822   23.4547 H   0  0  0  0  0  0
    9.9710   -1.1923   25.0613 H   0  0  0  0  0  0
   10.4709   -4.5269   25.9288 H   0  0  0  0  0  0
   11.3986   -3.3247   25.1217 H   0  0  0  0  0  0
    8.8800   -5.5329   23.7971 H   0  0  0  0  0  0
    8.9429   -6.9843   22.0283 H   0  0  0  0  0  0
   10.2679   -5.9909   21.3767 H   0  0  0  0  0  0
   10.6260   -7.3322   22.4901 H   0  0  0  0  0  0
  1 25  1  0  0  0
  1 26  1  0  0  0
  1 27  1  0  0  0
  2 10  1  0  0  0
  2 20  2  0  0  0
  3  4  1  0  0  0
  3 23  2  0  0  0
  3 25  1  0  0  0
  4  5  2  0  0  0
  4 32  1  0  0  0
  5  6  1  0  0  0
  5 33  1  0  0  0
  6  7  2  0  0  0
  6 24  1  0  0  0
  7 23  1  0  0  0
  7 34  1  0  0  0
  8  9  1  0  0  0
  8 22  1  0  0  0
  8 23  1  0  0  0
  8 26  1  0  0  0
  9 15  2  0  0  0
  9 16  1  0  0  0
 10 17  2  0  0  0
 10 35  1  0  0  0
 11 14  2  0  0  0
 11 19  1  0  0  0
 11 20  1  0  0  0
 12 13  1  0  0  0
 12 18  1  0  0  0
 12 36  1  0  0  0
 12 37  1  0  0  0
 13 14  1  0  0  0
 13 38  1  0  0  0
 13 39  1  0  0  0
 14 17  1  0  0  0
 16 17  1  0  0  0
 16 21  1  0  0  0
 18 19  1  0  0  0
 18 40  1  0  0  0
 18 41  1  0  0  0
 19 42  1  0  0  0
 19 43  1  0  0  0
 20 44  1  0  0  0
 21 22  1  0  0  0
 21 45  1  0  0  0
 21 46  1  0  0  0
 22 47  1  0  0  0
 22 48  1  0  0  0
 25 49  1  0  0  0
 25 50  1  0  0  0
 26 51  1  0  0  0
 26 52  1  0  0  0
 27 28  1  0  0  0
 27 53  1  0  0  0
 27 54  1  0  0  0
 28 29  2  0  0  0
 28 30  1  0  0  0
 30 31  1  0  0  0
 30 55  1  0  0  0
 31 56  1  0  0  0
 31 57  1  0  0  0
 31 58  1  0  0  0
M  END
> <s_m_entry_id>
1857

> <s_m_entry_name>
7gng.pdb.1_A_ligand

> <s_pdb_PDB_TITLE>
GROUP DEPOSITION SARS-COV-2 MAIN PROTEASE IN COMPLEX WITH INHIBITORS FROM THE COVID MOONSHOT -- CRYSTAL STRUCTURE OF SARS-COV-2 MAIN PROTEASE IN COMPLEX WITH EDJ-MED-705E09B8-1 (MPRO-P2607)

> <s_pdb_PDB_ID>
7GNG

> <s_m_Source_File>
7gng.pdb.gz

> <s_user_Compound_ID>
EDJ-MED-705e09b8-1

> <s_user_Monomer-Dimer>
Dimer

> <s_user_xcode>
Mpro-P2607

$$$$
