7GNH_ligand
                    3D
 Schrodinger Suite 2021-2.
 74 79  0  0  1  0            999 V2000
    6.7446   -1.8290   18.0396 N   0  0  0  0  0  0
    9.1653   -3.1697   24.7063 N   0  0  3  0  0  0
   11.4075   -3.3407   19.2398 C   0  0  0  0  0  0
   11.1623   -3.8008   17.9469 C   0  0  0  0  0  0
    9.9726   -3.5332   17.3359 C   0  0  0  0  0  0
    8.9708   -2.7836   17.9981 C   0  0  0  0  0  0
    7.7052   -2.5050   17.4250 C   0  0  0  0  0  0
    8.1784   -1.5989   19.9866 C   0  0  0  0  0  0
    8.1387   -1.1660   23.7103 C   0  0  2  0  0  0
    8.2949   -3.2063   25.8886 C   0  0  0  0  0  0
    5.9403   -2.5947   26.4888 C   0  0  0  0  0  0
    5.8473   -0.5611   24.6043 C   0  0  0  0  0  0
    6.9962   -1.3446   24.7157 C   0  0  0  0  0  0
    9.0265   -5.1703   22.8646 C   0  0  0  0  0  0
    9.8770   -6.3903   20.6804 C   0  0  0  0  0  0
    8.9048   -7.6382   22.7089 C   0  0  0  0  0  0
    9.2205   -2.3133   19.3213 C   0  0  0  0  0  0
    7.1120   -2.9228   22.3391 O   0  0  0  0  0  0
    7.7635   -1.9006   22.4176 C   0  0  0  0  0  0
    4.7584   -0.8367   25.4092 C   0  0  0  0  0  0
    3.3140    0.1226   25.2309 Cl  0  0  0  0  0  0
    4.7860   -1.8486   26.3433 C   0  0  0  0  0  0
    7.0542   -2.3612   25.6840 C   0  0  0  0  0  0
    9.9761   -4.4927   24.2111 S   0  0  0  0  0  0
    9.9627   -5.4268   25.2932 O   0  0  0  0  0  0
    9.5086   -6.4244   22.1480 C   0  0  0  0  0  0
    8.3957   -8.5528   23.1557 N   0  0  0  0  0  0
   10.9481   -6.5296   21.6945 C   0  0  0  0  0  0
   11.2305   -4.0483   23.6897 O   0  0  0  0  0  0
    9.4504   -1.8031   24.2364 C   0  0  0  0  0  0
    8.3500    0.2789   23.2004 C   0  0  0  0  0  0
    8.8380    0.0999   21.7655 C   0  0  0  0  0  0
    8.2515   -1.1884   21.3615 N   0  0  0  0  0  0
    6.9961   -1.3921   19.2828 C   0  0  0  0  0  0
   10.4659   -2.6104   19.9226 C   0  0  0  0  0  0
   12.6371   -3.6782   19.7563 O   0  0  0  0  0  0
   12.8850   -3.4613   21.1613 C   0  0  0  0  0  0
   14.3774   -3.4752   21.4046 C   0  0  0  0  0  0
   14.8638   -4.7190   22.0115 N   0  3  0  0  0  0
   15.4769   -4.4501   23.3095 C   0  0  0  0  0  0
   15.8200   -5.3921   21.1365 C   0  0  0  0  0  0
   11.9158   -4.3718   17.4249 H   0  0  0  0  0  0
    9.7861   -3.8943   16.3353 H   0  0  0  0  0  0
    7.5461   -2.8807   16.4250 H   0  0  0  0  0  0
    8.8447   -2.8397   26.7554 H   0  0  0  0  0  0
    8.0026   -4.2364   26.0922 H   0  0  0  0  0  0
    5.9895   -3.3734   27.2355 H   0  0  0  0  0  0
    5.8148    0.2518   23.8940 H   0  0  0  0  0  0
    8.8493   -4.3873   22.1273 H   0  0  0  0  0  0
    8.0004   -5.3256   23.1982 H   0  0  0  0  0  0
    9.9131   -5.3110   20.5322 H   0  0  0  0  0  0
    9.7270   -7.4419   20.4360 H   0  0  0  0  0  0
    3.9235   -2.0630   26.9570 H   0  0  0  0  0  0
   11.2403   -5.4837   21.7883 H   0  0  0  0  0  0
   11.0542   -7.6144   21.6921 H   0  0  0  0  0  0
   10.1838   -1.8417   23.4309 H   0  0  0  0  0  0
    9.8368   -1.2078   25.0638 H   0  0  0  0  0  0
    9.1313    0.7588   23.7899 H   0  0  0  0  0  0
    7.3940    0.8024   23.1936 H   0  0  0  0  0  0
    9.9249    0.0175   21.7624 H   0  0  0  0  0  0
    8.4257    0.8942   21.1432 H   0  0  0  0  0  0
    6.2467   -0.8290   19.8192 H   0  0  0  0  0  0
   10.6749   -2.2605   20.9227 H   0  0  0  0  0  0
   12.4154   -4.2569   21.7399 H   0  0  0  0  0  0
   12.4779   -2.4943   21.4568 H   0  0  0  0  0  0
   14.6479   -2.6325   22.0408 H   0  0  0  0  0  0
   14.8989   -3.3043   20.4628 H   0  0  0  0  0  0
   14.0749   -5.3336   22.1534 H   0  0  0  0  0  0
   15.8319   -5.3843   23.7447 H   0  0  0  0  0  0
   16.3170   -3.7676   23.1806 H   0  0  0  0  0  0
   14.7402   -3.9975   23.9731 H   0  0  0  0  0  0
   16.1638   -6.3109   21.6116 H   0  0  0  0  0  0
   15.3390   -5.6321   20.1882 H   0  0  0  0  0  0
   16.6717   -4.7365   20.9556 H   0  0  0  0  0  0
  1  7  1  0  0  0
  1 34  2  0  0  0
  2 10  1  0  0  0
  2 24  1  0  0  0
  2 30  1  0  0  0
  3  4  1  0  0  0
  3 35  2  0  0  0
  3 36  1  0  0  0
  4  5  2  0  0  0
  4 42  1  0  0  0
  5  6  1  0  0  0
  5 43  1  0  0  0
  6  7  2  0  0  0
  6 17  1  0  0  0
  7 44  1  0  0  0
  8 17  2  0  0  0
  8 33  1  0  0  0
  8 34  1  0  0  0
  9 13  1  0  0  0
  9 19  1  0  0  0
  9 30  1  0  0  0
  9 31  1  0  0  0
 10 23  1  0  0  0
 10 45  1  0  0  0
 10 46  1  0  0  0
 11 22  1  0  0  0
 11 23  2  0  0  0
 11 47  1  0  0  0
 12 13  2  0  0  0
 12 20  1  0  0  0
 12 48  1  0  0  0
 13 23  1  0  0  0
 14 24  1  0  0  0
 14 26  1  0  0  0
 14 49  1  0  0  0
 14 50  1  0  0  0
 15 26  1  0  0  0
 15 28  1  0  0  0
 15 51  1  0  0  0
 15 52  1  0  0  0
 16 26  1  0  0  0
 16 27  3  0  0  0
 17 35  1  0  0  0
 18 19  2  0  0  0
 19 33  1  0  0  0
 20 21  1  0  0  0
 20 22  2  0  0  0
 22 53  1  0  0  0
 24 25  2  0  0  0
 24 29  2  0  0  0
 26 28  1  0  0  0
 28 54  1  0  0  0
 28 55  1  0  0  0
 30 56  1  0  0  0
 30 57  1  0  0  0
 31 32  1  0  0  0
 31 58  1  0  0  0
 31 59  1  0  0  0
 32 33  1  0  0  0
 32 60  1  0  0  0
 32 61  1  0  0  0
 34 62  1  0  0  0
 35 63  1  0  0  0
 36 37  1  0  0  0
 37 38  1  0  0  0
 37 64  1  0  0  0
 37 65  1  0  0  0
 38 39  1  0  0  0
 38 66  1  0  0  0
 38 67  1  0  0  0
 39 40  1  0  0  0
 39 41  1  0  0  0
 39 68  1  0  0  0
 40 69  1  0  0  0
 40 70  1  0  0  0
 40 71  1  0  0  0
 41 72  1  0  0  0
 41 73  1  0  0  0
 41 74  1  0  0  0
M  CHG  1  39   1
M  END
> <s_m_entry_id>
1859

> <s_m_entry_name>
7gnh.pdb.1_A_ligand

> <s_pdb_PDB_TITLE>
GROUP DEPOSITION SARS-COV-2 MAIN PROTEASE IN COMPLEX WITH INHIBITORS FROM THE COVID MOONSHOT -- CRYSTAL STRUCTURE OF SARS-COV-2 MAIN PROTEASE IN COMPLEX WITH MAT-POS-853C0FFA-9 (MPRO-P2649)

> <s_pdb_PDB_ID>
7GNH

> <s_m_Source_File>
7gnh.pdb.gz

> <s_user_Compound_ID>
MAT-POS-853c0ffa-9

> <s_user_Monomer-Dimer>
Dimer

> <s_user_xcode>
Mpro-P2649

$$$$
