7GNI_ligand
                    3D
 Schrodinger Suite 2021-2.
 53 57  0  0  1  0            999 V2000
    9.3793   -3.0724   24.5954 N   0  0  0  0  0  0
    7.0473   -1.9209   17.6625 N   0  0  0  0  0  0
    8.2644   -1.1710   23.4390 C   0  0  2  0  0  0
    8.4292    0.2590   22.8608 C   0  0  0  0  0  0
    8.9579    0.0076   21.4477 C   0  0  0  0  0  0
    7.9640   -2.0034   22.1840 C   0  0  0  0  0  0
    8.2926   -1.7620   19.7408 C   0  0  0  0  0  0
    7.9958   -2.7093   17.1727 C   0  0  0  0  0  0
   11.2423   -4.3142   18.0898 C   0  0  0  0  0  0
   10.4574   -3.0104   19.9620 C   0  0  0  0  0  0
    7.1729   -1.3144   24.5035 C   0  0  0  0  0  0
    5.0162   -1.8363   26.1936 C   0  0  0  0  0  0
    6.0848   -2.7111   26.1539 C   0  0  0  0  0  0
    7.1647   -2.4648   25.3095 C   0  0  0  0  0  0
    8.1337   -4.5585   25.7421 O   0  0  0  0  0  0
    8.2542   -3.4520   25.2531 C   0  0  0  0  0  0
   10.5638   -3.9112   24.6254 C   0  0  0  0  0  0
   10.5688   -5.1074   23.6832 C   0  0  0  0  0  0
   11.4974   -5.9118   23.7145 O   0  0  0  0  0  0
    9.5638   -5.2282   22.8229 N   0  0  0  0  0  0
    9.5987   -6.1711   21.7190 C   0  0  0  0  0  0
    5.0414   -0.7075   25.4034 C   0  0  0  0  0  0
    3.6622    0.3508   25.4007 Cl  0  0  0  0  0  0
    6.1113   -0.4151   24.5766 C   0  0  0  0  0  0
    9.5655   -1.7083   24.0938 C   0  0  0  0  0  0
    7.4699   -3.1159   22.1611 O   0  0  0  0  0  0
    8.3756   -1.2992   21.0940 N   0  0  0  0  0  0
    9.3126   -2.6160   19.2199 C   0  0  0  0  0  0
   11.3738   -3.8495   19.3905 C   0  0  0  0  0  0
   12.7021   -4.4297   20.3613 Cl  0  0  0  0  0  0
   10.1497   -3.9566   17.3529 C   0  0  0  0  0  0
    9.1555   -3.1054   17.8914 C   0  0  0  0  0  0
    7.2115   -1.4667   18.9141 C   0  0  0  0  0  0
    9.1831    0.7955   23.4370 H   0  0  0  0  0  0
    7.4516    0.7372   22.7995 H   0  0  0  0  0  0
   10.0440   -0.0792   21.4799 H   0  0  0  0  0  0
    8.5653    0.7705   20.7754 H   0  0  0  0  0  0
    7.9131   -3.0925   16.1664 H   0  0  0  0  0  0
   12.0015   -4.9547   17.6659 H   0  0  0  0  0  0
   10.5990   -2.6480   20.9695 H   0  0  0  0  0  0
    4.1745   -2.0410   26.8386 H   0  0  0  0  0  0
    6.0857   -3.5913   26.7797 H   0  0  0  0  0  0
   10.7336   -4.2566   25.6452 H   0  0  0  0  0  0
   11.4435   -3.2976   24.4316 H   0  0  0  0  0  0
    8.7400   -4.6528   22.9247 H   0  0  0  0  0  0
    8.6732   -6.0974   21.1481 H   0  0  0  0  0  0
   10.4443   -5.9412   21.0707 H   0  0  0  0  0  0
    9.7050   -7.1836   22.1086 H   0  0  0  0  0  0
    6.1322    0.4935   23.9931 H   0  0  0  0  0  0
   10.3718   -1.6983   23.3603 H   0  0  0  0  0  0
    9.8538   -1.0550   24.9173 H   0  0  0  0  0  0
   10.0350   -4.3242   16.3439 H   0  0  0  0  0  0
    6.4694   -0.8174   19.3546 H   0  0  0  0  0  0
  1 16  1  0  0  0
  1 17  1  0  0  0
  1 25  1  0  0  0
  2  8  1  0  0  0
  2 33  2  0  0  0
  3  4  1  0  0  0
  3  6  1  0  0  0
  3 11  1  0  0  0
  3 25  1  0  0  0
  4  5  1  0  0  0
  4 34  1  0  0  0
  4 35  1  0  0  0
  5 27  1  0  0  0
  5 36  1  0  0  0
  5 37  1  0  0  0
  6 26  2  0  0  0
  6 27  1  0  0  0
  7 27  1  0  0  0
  7 28  2  0  0  0
  7 33  1  0  0  0
  8 32  2  0  0  0
  8 38  1  0  0  0
  9 29  1  0  0  0
  9 31  2  0  0  0
  9 39  1  0  0  0
 10 28  1  0  0  0
 10 29  2  0  0  0
 10 40  1  0  0  0
 11 14  1  0  0  0
 11 24  2  0  0  0
 12 13  1  0  0  0
 12 22  2  0  0  0
 12 41  1  0  0  0
 13 14  2  0  0  0
 13 42  1  0  0  0
 14 16  1  0  0  0
 15 16  2  0  0  0
 17 18  1  0  0  0
 17 43  1  0  0  0
 17 44  1  0  0  0
 18 19  2  0  0  0
 18 20  1  0  0  0
 20 21  1  0  0  0
 20 45  1  0  0  0
 21 46  1  0  0  0
 21 47  1  0  0  0
 21 48  1  0  0  0
 22 23  1  0  0  0
 22 24  1  0  0  0
 24 49  1  0  0  0
 25 50  1  0  0  0
 25 51  1  0  0  0
 28 32  1  0  0  0
 29 30  1  0  0  0
 31 32  1  0  0  0
 31 52  1  0  0  0
 33 53  1  0  0  0
M  END
> <s_m_entry_id>
1861

> <s_m_entry_name>
7gni.pdb.1_A_ligand

> <s_pdb_PDB_TITLE>
GROUP DEPOSITION SARS-COV-2 MAIN PROTEASE IN COMPLEX WITH INHIBITORS FROM THE COVID MOONSHOT -- CRYSTAL STRUCTURE OF SARS-COV-2 MAIN PROTEASE IN COMPLEX WITH EDG-MED-B1EF7FE3-1 (MPRO-P2660)

> <s_pdb_PDB_ID>
7GNI

> <s_m_Source_File>
7gni.pdb.gz

> <s_user_Compound_ID>
EDG-MED-b1ef7fe3-1

> <s_user_Monomer-Dimer>
Dimer

> <s_user_xcode>
Mpro-P2660

$$$$
