7GNJ_ligand
                    3D
 Schrodinger Suite 2021-2.
 57 62  0  0  1  0            999 V2000
    9.5470   -3.0877   24.5540 N   0  0  0  0  0  0
    7.0679   -2.0645   17.6536 N   0  0  0  0  0  0
   12.0722   -3.3805   24.7615 C   0  0  0  0  0  0
    9.6907   -1.7564   23.9621 C   0  0  0  0  0  0
    8.3506   -1.2139   23.4009 C   0  0  2  0  0  0
    8.5027    0.2154   22.8259 C   0  0  0  0  0  0
    9.0047   -0.0293   21.4025 C   0  0  0  0  0  0
    8.3395   -1.8066   19.7056 C   0  0  0  0  0  0
    9.2232   -3.1627   17.8778 C   0  0  0  0  0  0
   11.3499   -4.2972   18.0731 C   0  0  0  0  0  0
   10.5678   -2.9607   19.9023 C   0  0  0  0  0  0
    6.2426   -0.4467   24.6043 C   0  0  0  0  0  0
    5.2398   -0.6914   25.5236 C   0  0  0  0  0  0
    5.2552   -1.8008   26.3450 C   0  0  0  0  0  0
    7.3165   -2.4973   25.3052 C   0  0  0  0  0  0
    8.3422   -4.5666   25.7565 O   0  0  0  0  0  0
    8.4235   -3.4694   25.2294 C   0  0  0  0  0  0
   10.7321   -3.9850   24.4377 C   0  0  0  0  0  0
   11.4361   -4.3260   25.7239 C   0  0  0  0  0  0
   10.7374   -5.0582   23.3782 C   0  0  0  0  0  0
   11.7603   -5.7119   23.2258 O   0  0  0  0  0  0
    9.6402   -5.2349   22.6509 N   0  0  0  0  0  0
    9.5984   -6.2052   21.5715 C   0  0  0  0  0  0
    6.2974   -2.7042   26.2371 C   0  0  0  0  0  0
    3.8880    0.4038   25.6048 Cl  0  0  0  0  0  0
    7.2834   -1.3630   24.4784 C   0  0  0  0  0  0
    8.0020   -2.0305   22.1539 C   0  0  0  0  0  0
    7.4789   -3.1305   22.1400 O   0  0  0  0  0  0
    8.4182   -1.3358   21.0573 N   0  0  0  0  0  0
    9.3852   -2.6275   19.1883 C   0  0  0  0  0  0
   11.5198   -3.7736   19.3512 C   0  0  0  0  0  0
   10.2307   -4.0072   17.3484 C   0  0  0  0  0  0
    8.0379   -2.8293   17.1680 C   0  0  0  0  0  0
    7.2333   -1.5698   18.8908 C   0  0  0  0  0  0
   11.7379   -2.4384   25.1961 H   0  0  0  0  0  0
   12.7132   -4.0813   24.2266 H   0  0  0  0  0  0
   10.4302   -1.7933   23.1622 H   0  0  0  0  0  0
   10.0754   -1.0657   24.7125 H   0  0  0  0  0  0
    9.2665    0.7508   23.3899 H   0  0  0  0  0  0
    7.5238    0.6930   22.7852 H   0  0  0  0  0  0
   10.0914   -0.1143   21.4138 H   0  0  0  0  0  0
    8.5965    0.7345   20.7407 H   0  0  0  0  0  0
   12.1072   -4.9387   17.6473 H   0  0  0  0  0  0
   10.7263   -2.5705   20.8968 H   0  0  0  0  0  0
    6.2116    0.4452   23.9960 H   0  0  0  0  0  0
    4.4604   -1.9544   27.0599 H   0  0  0  0  0  0
   10.9532   -3.6048   26.3833 H   0  0  0  0  0  0
   11.9285   -5.2477   25.4139 H   0  0  0  0  0  0
    8.8129   -4.6886   22.8440 H   0  0  0  0  0  0
    8.6124   -6.1905   21.1071 H   0  0  0  0  0  0
   10.3539   -5.9540   20.8270 H   0  0  0  0  0  0
    9.7975   -7.2004   21.9689 H   0  0  0  0  0  0
    6.3256   -3.5749   26.8755 H   0  0  0  0  0  0
   12.4093   -4.0081   19.9169 H   0  0  0  0  0  0
   10.1175   -4.4293   16.3607 H   0  0  0  0  0  0
    7.9539   -3.2414   16.1732 H   0  0  0  0  0  0
    6.4745   -0.9355   19.3247 H   0  0  0  0  0  0
  1  4  1  0  0  0
  1 17  1  0  0  0
  1 18  1  0  0  0
  2 33  2  0  0  0
  2 34  1  0  0  0
  3 18  1  0  0  0
  3 19  1  0  0  0
  3 35  1  0  0  0
  3 36  1  0  0  0
  4  5  1  0  0  0
  4 37  1  0  0  0
  4 38  1  0  0  0
  5  6  1  0  0  0
  5 26  1  0  0  0
  5 27  1  0  0  0
  6  7  1  0  0  0
  6 39  1  0  0  0
  6 40  1  0  0  0
  7 29  1  0  0  0
  7 41  1  0  0  0
  7 42  1  0  0  0
  8 29  1  0  0  0
  8 30  1  0  0  0
  8 34  2  0  0  0
  9 30  1  0  0  0
  9 32  2  0  0  0
  9 33  1  0  0  0
 10 31  2  0  0  0
 10 32  1  0  0  0
 10 43  1  0  0  0
 11 30  2  0  0  0
 11 31  1  0  0  0
 11 44  1  0  0  0
 12 13  1  0  0  0
 12 26  2  0  0  0
 12 45  1  0  0  0
 13 14  2  0  0  0
 13 25  1  0  0  0
 14 24  1  0  0  0
 14 46  1  0  0  0
 15 17  1  0  0  0
 15 24  2  0  0  0
 15 26  1  0  0  0
 16 17  2  0  0  0
 18 19  1  0  0  0
 18 20  1  0  0  0
 19 47  1  0  0  0
 19 48  1  0  0  0
 20 21  2  0  0  0
 20 22  1  0  0  0
 22 23  1  0  0  0
 22 49  1  0  0  0
 23 50  1  0  0  0
 23 51  1  0  0  0
 23 52  1  0  0  0
 24 53  1  0  0  0
 27 28  2  0  0  0
 27 29  1  0  0  0
 31 54  1  0  0  0
 32 55  1  0  0  0
 33 56  1  0  0  0
 34 57  1  0  0  0
M  END
> <s_m_entry_id>
1863

> <s_m_entry_name>
7gnj.pdb.1_A_ligand

> <s_pdb_PDB_TITLE>
GROUP DEPOSITION SARS-COV-2 MAIN PROTEASE IN COMPLEX WITH INHIBITORS FROM THE COVID MOONSHOT -- CRYSTAL STRUCTURE OF SARS-COV-2 MAIN PROTEASE IN COMPLEX WITH EDJ-MED-976A33D5-1 (MPRO-P2724)

> <s_pdb_PDB_ID>
7GNJ

> <s_m_Source_File>
7gnj.pdb.gz

> <s_user_Compound_ID>
EDJ-MED-976a33d5-1

> <s_user_Monomer-Dimer>
Dimer

> <s_user_xcode>
Mpro-P2724

$$$$
