7GNK_ligand
                    3D
 Schrodinger Suite 2021-2.
 61 66  0  0  1  0            999 V2000
    9.8048   -5.1217   23.1304 N   0  0  0  0  0  0
    6.9795   -1.7666   17.9344 N   0  0  0  0  0  0
    8.6179   -2.7823   26.0574 C   0  0  0  0  0  0
   10.5905   -3.7510   24.9528 C   0  0  0  0  0  0
   10.8800   -4.6255   23.7418 C   0  0  0  0  0  0
    9.8805   -5.9713   21.9467 C   0  0  0  0  0  0
   10.1722   -7.4186   22.3008 C   0  0  0  0  0  0
    9.6950   -8.4763   21.3586 C   0  0  0  0  0  0
    8.4146    0.3441   23.1058 C   0  0  0  0  0  0
    7.8811   -1.8867   22.4152 C   0  0  0  0  0  0
    7.1645   -1.3738   19.2020 C   0  0  0  0  0  0
   10.1111   -3.7191   17.4410 C   0  0  0  0  0  0
   11.2463   -4.0556   18.1248 C   0  0  0  0  0  0
   11.4587   -3.5897   19.4155 C   0  0  0  0  0  0
    9.3251   -2.4318   19.3743 C   0  0  0  0  0  0
    5.9229   -0.5045   24.5930 C   0  0  0  0  0  0
    7.2985   -2.9604   22.3808 O   0  0  0  0  0  0
    8.3462   -1.2013   21.3313 N   0  0  0  0  0  0
    8.2870   -1.6555   19.9731 C   0  0  0  0  0  0
   10.5249   -2.8054   20.0369 C   0  0  0  0  0  0
    9.1300   -2.8859   18.0371 C   0  0  0  0  0  0
    7.9347   -2.5016   17.3772 C   0  0  0  0  0  0
    8.9358    0.1006   21.6906 C   0  0  0  0  0  0
    8.2304   -1.0809   23.6750 C   0  0  2  0  0  0
    7.1320   -1.1876   24.7447 C   0  0  0  0  0  0
    7.3120   -2.0469   25.8421 C   0  0  0  0  0  0
    6.2534   -2.2440   26.7315 C   0  0  0  0  0  0
    5.0369   -1.6091   26.5474 C   0  0  0  0  0  0
    4.8915   -0.7395   25.4857 C   0  0  0  0  0  0
    3.3554    0.0507   25.2327 Cl  0  0  0  0  0  0
    9.5885   -1.6481   24.1658 C   0  0  0  0  0  0
    9.3806   -2.9452   24.8068 N   0  0  2  0  0  0
   12.0339   -4.8298   23.3585 O   0  0  0  0  0  0
    9.0309   -8.3008   22.6880 C   0  0  0  0  0  0
    8.8819   -4.9140   23.4842 H   0  0  0  0  0  0
    8.4151   -3.7627   26.4886 H   0  0  0  0  0  0
    9.2238   -2.2400   26.7834 H   0  0  0  0  0  0
   11.4416   -3.0957   25.1378 H   0  0  0  0  0  0
   10.5025   -4.3786   25.8396 H   0  0  0  0  0  0
   10.6582   -5.5972   21.2810 H   0  0  0  0  0  0
    8.9398   -5.9146   21.3990 H   0  0  0  0  0  0
   11.1215   -7.6108   22.8008 H   0  0  0  0  0  0
   10.3965   -9.2684   21.6206 H   0  0  0  0  0  0
    9.0220   -7.8725   20.7498 H   0  0  0  0  0  0
    7.4448    0.8387   23.0523 H   0  0  0  0  0  0
    9.1754    0.8676   23.6847 H   0  0  0  0  0  0
    6.4061   -0.7900   19.7026 H   0  0  0  0  0  0
    9.9554   -4.0884   16.4381 H   0  0  0  0  0  0
   11.9880   -4.6894   17.6615 H   0  0  0  0  0  0
   12.3679   -3.8456   19.9393 H   0  0  0  0  0  0
    5.7987    0.2004   23.7842 H   0  0  0  0  0  0
   10.6946   -2.4609   21.0463 H   0  0  0  0  0  0
    7.8271   -2.8453   16.3590 H   0  0  0  0  0  0
   10.0216    0.0088   21.7178 H   0  0  0  0  0  0
    8.5431    0.8695   21.0253 H   0  0  0  0  0  0
    6.3761   -2.9007   27.5800 H   0  0  0  0  0  0
    4.2207   -1.7978   27.2290 H   0  0  0  0  0  0
   10.0335   -0.9567   24.8813 H   0  0  0  0  0  0
   10.2608   -1.7667   23.3160 H   0  0  0  0  0  0
    8.2053   -7.6573   22.3842 H   0  0  0  0  0  0
    9.5797   -9.0529   23.2549 H   0  0  0  0  0  0
  1  5  1  0  0  0
  1  6  1  0  0  0
  1 35  1  0  0  0
  2 11  1  0  0  0
  2 22  2  0  0  0
  3 26  1  0  0  0
  3 32  1  0  0  0
  3 36  1  0  0  0
  3 37  1  0  0  0
  4  5  1  0  0  0
  4 32  1  0  0  0
  4 38  1  0  0  0
  4 39  1  0  0  0
  5 33  2  0  0  0
  6  7  1  0  0  0
  6 40  1  0  0  0
  6 41  1  0  0  0
  7  8  1  0  0  0
  7 34  1  0  0  0
  7 42  1  0  0  0
  8 34  1  0  0  0
  8 43  1  0  0  0
  8 44  1  0  0  0
  9 23  1  0  0  0
  9 24  1  0  0  0
  9 45  1  0  0  0
  9 46  1  0  0  0
 10 17  2  0  0  0
 10 18  1  0  0  0
 10 24  1  0  0  0
 11 19  2  0  0  0
 11 47  1  0  0  0
 12 13  1  0  0  0
 12 21  2  0  0  0
 12 48  1  0  0  0
 13 14  2  0  0  0
 13 49  1  0  0  0
 14 20  1  0  0  0
 14 50  1  0  0  0
 15 19  1  0  0  0
 15 20  2  0  0  0
 15 21  1  0  0  0
 16 25  1  0  0  0
 16 29  2  0  0  0
 16 51  1  0  0  0
 18 19  1  0  0  0
 18 23  1  0  0  0
 20 52  1  0  0  0
 21 22  1  0  0  0
 22 53  1  0  0  0
 23 54  1  0  0  0
 23 55  1  0  0  0
 24 25  1  0  0  0
 24 31  1  0  0  0
 25 26  2  0  0  0
 26 27  1  0  0  0
 27 28  2  0  0  0
 27 56  1  0  0  0
 28 29  1  0  0  0
 28 57  1  0  0  0
 29 30  1  0  0  0
 31 32  1  0  0  0
 31 58  1  0  0  0
 31 59  1  0  0  0
 34 60  1  0  0  0
 34 61  1  0  0  0
M  END
> <s_m_entry_id>
1865

> <s_m_entry_name>
7gnk.pdb.1_A_ligand

> <s_pdb_PDB_TITLE>
GROUP DEPOSITION SARS-COV-2 MAIN PROTEASE IN COMPLEX WITH INHIBITORS FROM THE COVID MOONSHOT -- CRYSTAL STRUCTURE OF SARS-COV-2 MAIN PROTEASE IN COMPLEX WITH ALP-POS-ECBED2BA-12 (MPRO-P2730)

> <s_pdb_PDB_ID>
7GNK

> <s_m_Source_File>
7gnk.pdb.gz

> <s_user_Compound_ID>
ALP-POS-ecbed2ba-12

> <s_user_Monomer-Dimer>
Dimer

> <s_user_xcode>
Mpro-P2730

$$$$
