7GNL_ligand
                    3D
 Schrodinger Suite 2021-2.
 78 83  0  0  1  0            999 V2000
   10.8336   -9.3319   20.1999 N   0  0  0  0  0  0
   10.1530   -1.9915   23.9167 N   0  0  1  0  0  0
   11.9639  -11.3522   19.3385 C   0  0  0  0  0  0
   11.8686  -10.3390   20.4826 C   0  0  0  0  0  0
   10.9052   -8.0477   20.7772 C   0  0  0  0  0  0
   11.9904   -7.6813   21.5717 C   0  0  0  0  0  0
   12.0133   -6.4610   22.2213 C   0  0  0  0  0  0
    9.8877   -5.9143   21.2673 C   0  0  0  0  0  0
   11.5717   -2.3279   23.9839 C   0  0  0  0  0  0
    8.4940   -0.4371   23.0607 C   0  0  1  0  0  0
    8.4958   -1.4384   19.3919 C   0  0  0  0  0  0
    9.2989   -3.0310   17.7209 C   0  0  0  0  0  0
   10.2755   -3.9551   17.2753 C   0  0  0  0  0  0
   11.4135   -4.1706   18.0005 C   0  0  0  0  0  0
   10.7182   -2.5802   19.6481 C   0  0  0  0  0  0
    9.4597   -2.2364   25.1946 C   0  0  0  0  0  0
    7.1621   -2.0973   26.2068 C   0  0  0  0  0  0
   13.1316   -3.9765   23.2444 O   0  0  0  0  0  0
   11.9566   -3.6283   23.2999 C   0  0  0  0  0  0
   10.9193   -4.3404   22.7901 N   0  0  0  0  0  0
   10.9542   -5.5727   22.0858 C   0  0  0  0  0  0
    9.8653   -7.1341   20.6156 C   0  0  0  0  0  0
    9.5283   -9.9119   19.8509 C   0  0  0  0  0  0
    9.6819  -10.9048   18.7063 C   0  0  0  0  0  0
   10.6452  -11.9569   19.0706 N   0  3  0  0  0  0
   10.7386  -12.9778   18.0068 C   0  0  0  0  0  0
    9.9897  -14.2544   18.3150 C   0  0  0  0  0  0
    8.0407   -1.7041   25.1983 C   0  0  0  0  0  0
    7.5977   -0.7912   24.2303 C   0  0  0  0  0  0
    6.3160   -0.2581   24.3254 C   0  0  0  0  0  0
    5.4762   -0.6665   25.3400 C   0  0  0  0  0  0
    3.8743    0.0137   25.4361 Cl  0  0  0  0  0  0
    5.8775   -1.5914   26.2745 C   0  0  0  0  0  0
    9.9561   -0.6187   23.4585 C   0  0  0  0  0  0
    8.1872   -1.3114   21.8428 C   0  0  0  0  0  0
    7.5665   -2.3711   21.9358 O   0  0  0  0  0  0
    8.6491   -0.8322   20.6619 N   0  0  0  0  0  0
    9.5174   -2.3273   18.9366 C   0  0  0  0  0  0
   11.6380   -3.4780   19.1830 C   0  0  0  0  0  0
    8.0852   -2.7915   17.0277 C   0  0  0  0  0  0
    7.1342   -1.9684   17.4488 N   0  0  0  0  0  0
    7.3496   -1.3176   18.6041 C   0  0  0  0  0  0
   12.6746  -12.1345   19.6048 H   0  0  0  0  0  0
   12.3231  -10.8517   18.4394 H   0  0  0  0  0  0
   11.6254  -10.8594   21.4089 H   0  0  0  0  0  0
   12.8314   -9.8441   20.6101 H   0  0  0  0  0  0
   12.8276   -8.3540   21.6859 H   0  0  0  0  0  0
   12.8582   -6.1937   22.8386 H   0  0  0  0  0  0
    9.0663   -5.2256   21.1350 H   0  0  0  0  0  0
   11.8849   -2.3629   25.0274 H   0  0  0  0  0  0
   12.1563   -1.5111   23.5608 H   0  0  0  0  0  0
    8.3290    0.6070   22.7946 H   0  0  0  0  0  0
   10.1247   -4.4979   16.3539 H   0  0  0  0  0  0
   12.1469   -4.8842   17.6551 H   0  0  0  0  0  0
   10.9176   -2.0597   20.5732 H   0  0  0  0  0  0
   10.0220   -1.7746   26.0062 H   0  0  0  0  0  0
    9.4456   -3.3068   25.3998 H   0  0  0  0  0  0
    7.4810   -2.8095   26.9534 H   0  0  0  0  0  0
    9.9740   -4.0002   22.8935 H   0  0  0  0  0  0
    9.0294   -7.3750   19.9755 H   0  0  0  0  0  0
    8.8457   -9.1163   19.5521 H   0  0  0  0  0  0
    9.1133  -10.4217   20.7204 H   0  0  0  0  0  0
   10.0343  -10.3821   17.8171 H   0  0  0  0  0  0
    8.7152  -11.3580   18.4866 H   0  0  0  0  0  0
   10.3226  -12.4058   19.9159 H   0  0  0  0  0  0
   11.7870  -13.2099   17.8196 H   0  0  0  0  0  0
   10.3693  -12.5591   17.0706 H   0  0  0  0  0  0
   10.1063  -14.9536   17.4869 H   0  0  0  0  0  0
   10.3901  -14.7004   19.2254 H   0  0  0  0  0  0
    8.9321  -14.0311   18.4552 H   0  0  0  0  0  0
    5.9808    0.4738   23.6055 H   0  0  0  0  0  0
    5.2066   -1.9236   27.0529 H   0  0  0  0  0  0
   10.5935   -0.4293   22.5948 H   0  0  0  0  0  0
   10.2013    0.0720   24.2652 H   0  0  0  0  0  0
    9.1439    0.0443   20.7467 H   0  0  0  0  0  0
   12.5456   -3.6466   19.7436 H   0  0  0  0  0  0
    7.8890   -3.2952   16.0927 H   0  0  0  0  0  0
    6.5499   -0.6601   18.9116 H   0  0  0  0  0  0
  1  4  1  0  0  0
  1  5  1  0  0  0
  1 23  1  0  0  0
  2  9  1  0  0  0
  2 16  1  0  0  0
  2 34  1  0  0  0
  3  4  1  0  0  0
  3 25  1  0  0  0
  3 43  1  0  0  0
  3 44  1  0  0  0
  4 45  1  0  0  0
  4 46  1  0  0  0
  5  6  1  0  0  0
  5 22  2  0  0  0
  6  7  2  0  0  0
  6 47  1  0  0  0
  7 21  1  0  0  0
  7 48  1  0  0  0
  8 21  2  0  0  0
  8 22  1  0  0  0
  8 49  1  0  0  0
  9 19  1  0  0  0
  9 50  1  0  0  0
  9 51  1  0  0  0
 10 29  1  0  0  0
 10 34  1  0  0  0
 10 35  1  0  0  0
 10 52  1  0  0  0
 11 37  1  0  0  0
 11 38  1  0  0  0
 11 42  2  0  0  0
 12 13  1  0  0  0
 12 38  2  0  0  0
 12 40  1  0  0  0
 13 14  2  0  0  0
 13 53  1  0  0  0
 14 39  1  0  0  0
 14 54  1  0  0  0
 15 38  1  0  0  0
 15 39  2  0  0  0
 15 55  1  0  0  0
 16 28  1  0  0  0
 16 56  1  0  0  0
 16 57  1  0  0  0
 17 28  1  0  0  0
 17 33  2  0  0  0
 17 58  1  0  0  0
 18 19  2  0  0  0
 19 20  1  0  0  0
 20 21  1  0  0  0
 20 59  1  0  0  0
 22 60  1  0  0  0
 23 24  1  0  0  0
 23 61  1  0  0  0
 23 62  1  0  0  0
 24 25  1  0  0  0
 24 63  1  0  0  0
 24 64  1  0  0  0
 25 26  1  0  0  0
 25 65  1  0  0  0
 26 27  1  0  0  0
 26 66  1  0  0  0
 26 67  1  0  0  0
 27 68  1  0  0  0
 27 69  1  0  0  0
 27 70  1  0  0  0
 28 29  2  0  0  0
 29 30  1  0  0  0
 30 31  2  0  0  0
 30 71  1  0  0  0
 31 32  1  0  0  0
 31 33  1  0  0  0
 33 72  1  0  0  0
 34 73  1  0  0  0
 34 74  1  0  0  0
 35 36  2  0  0  0
 35 37  1  0  0  0
 37 75  1  0  0  0
 39 76  1  0  0  0
 40 41  2  0  0  0
 40 77  1  0  0  0
 41 42  1  0  0  0
 42 78  1  0  0  0
M  CHG  1  25   1
M  END
> <s_m_entry_id>
1867

> <s_m_entry_name>
7gnl.pdb.1_A_ligand

> <s_pdb_PDB_TITLE>
GROUP DEPOSITION SARS-COV-2 MAIN PROTEASE IN COMPLEX WITH INHIBITORS FROM THE COVID MOONSHOT -- CRYSTAL STRUCTURE OF SARS-COV-2 MAIN PROTEASE IN COMPLEX WITH NIR-WEI-DCC3321B-1 (MPRO-P2757)

> <s_pdb_PDB_ID>
7GNL

> <s_m_Source_File>
7gnl.pdb.gz

> <s_user_Compound_ID>
NIR-WEI-dcc3321b-1

> <s_user_Monomer-Dimer>
Dimer

> <s_user_xcode>
Mpro-P2757

$$$$
