7GNN_ligand
                    3D
 Schrodinger Suite 2021-2.
 59 64  0  0  1  0            999 V2000
    8.6226   -1.0140   21.0888 N   0  0  0  0  0  0
   10.7421   -4.7312   23.0750 N   0  0  0  0  0  0
    8.0986   -1.5633   22.2148 C   0  0  0  0  0  0
    8.4367   -1.4455   19.7517 C   0  0  0  0  0  0
    7.2494   -1.2591   19.0445 C   0  0  0  0  0  0
    7.9011   -2.5346   17.2739 C   0  0  0  0  0  0
    9.1662   -2.8063   17.8520 C   0  0  0  0  0  0
   11.3551   -3.8276   17.8158 C   0  0  0  0  0  0
    9.4505   -2.2386   19.1248 C   0  0  0  0  0  0
    7.5360   -1.9823   25.5726 C   0  0  0  0  0  0
    5.2669   -1.6564   26.3413 C   0  0  0  0  0  0
    5.0930   -0.6982   25.3739 C   0  0  0  0  0  0
   10.9608   -5.5429   21.9383 C   0  0  0  0  0  0
    9.8672   -6.1028   21.2879 C   0  0  0  0  0  0
   12.2483   -5.7356   21.4415 C   0  0  0  0  0  0
   11.3283   -7.0089   19.6230 C   0  0  0  0  0  0
    3.5584    0.1155   25.2502 Cl  0  0  0  0  0  0
    6.4919   -2.2846   26.4459 C   0  0  0  0  0  0
    6.1005   -0.3749   24.4852 C   0  0  0  0  0  0
    7.3271   -1.0385   24.5573 C   0  0  0  0  0  0
    8.4024   -0.8025   23.5080 C   0  0  1  0  0  0
    7.4181   -2.5899   22.2038 O   0  0  0  0  0  0
   10.7216   -2.4948   19.6977 C   0  0  0  0  0  0
   11.6461   -3.2638   19.0458 C   0  0  0  0  0  0
   10.1449   -3.6124   17.2233 C   0  0  0  0  0  0
    6.9705   -1.7857   17.8426 N   0  0  0  0  0  0
    9.7737   -1.2190   24.0443 C   0  0  0  0  0  0
    8.8734   -2.6600   25.7638 C   0  0  0  0  0  0
    9.7194   -2.5904   24.5605 N   0  0  2  0  0  0
   11.0515   -3.1199   24.8457 C   0  0  0  0  0  0
   11.6405   -3.9587   23.7249 C   0  0  0  0  0  0
   12.8400   -3.9104   23.4569 O   0  0  0  0  0  0
   12.4425   -6.4553   20.2640 C   0  0  0  0  0  0
   13.6591   -6.6634   19.6079 N   0  0  0  0  0  0
   13.4678   -7.3427   18.5288 C   0  0  0  0  0  0
   11.8393   -7.8117   18.1704 S   0  0  0  0  0  0
   10.0449   -6.8461   20.1353 C   0  0  0  0  0  0
    9.2207   -0.2028   21.1539 H   0  0  0  0  0  0
    9.8240   -4.6849   23.4933 H   0  0  0  0  0  0
    6.4627   -0.6478   19.4615 H   0  0  0  0  0  0
    7.6480   -2.9491   16.3093 H   0  0  0  0  0  0
   12.0886   -4.4437   17.3170 H   0  0  0  0  0  0
    4.4528   -1.9077   27.0049 H   0  0  0  0  0  0
    8.8722   -5.9583   21.6823 H   0  0  0  0  0  0
   13.0975   -5.3270   21.9692 H   0  0  0  0  0  0
    6.6334   -3.0221   27.2221 H   0  0  0  0  0  0
    5.9377    0.3883   23.7387 H   0  0  0  0  0  0
    8.4321    0.2630   23.2804 H   0  0  0  0  0  0
   10.9722   -2.0804   20.6630 H   0  0  0  0  0  0
   12.6115   -3.4292   19.5008 H   0  0  0  0  0  0
    9.9375   -4.0646   16.2647 H   0  0  0  0  0  0
   10.0716   -0.5414   24.8445 H   0  0  0  0  0  0
   10.5098   -1.1618   23.2425 H   0  0  0  0  0  0
    8.7152   -3.7036   26.0356 H   0  0  0  0  0  0
    9.3965   -2.1991   26.6017 H   0  0  0  0  0  0
   11.0167   -3.7121   25.7601 H   0  0  0  0  0  0
   11.7270   -2.2953   25.0731 H   0  0  0  0  0  0
   14.3043   -7.5946   17.8939 H   0  0  0  0  0  0
    9.1929   -7.2922   19.6438 H   0  0  0  0  0  0
  1  3  1  0  0  0
  1  4  1  0  0  0
  1 38  1  0  0  0
  2 13  1  0  0  0
  2 31  1  0  0  0
  2 39  1  0  0  0
  3 21  1  0  0  0
  3 22  2  0  0  0
  4  5  2  0  0  0
  4  9  1  0  0  0
  5 26  1  0  0  0
  5 40  1  0  0  0
  6  7  1  0  0  0
  6 26  2  0  0  0
  6 41  1  0  0  0
  7  9  1  0  0  0
  7 25  2  0  0  0
  8 24  2  0  0  0
  8 25  1  0  0  0
  8 42  1  0  0  0
  9 23  2  0  0  0
 10 18  1  0  0  0
 10 20  2  0  0  0
 10 28  1  0  0  0
 11 12  1  0  0  0
 11 18  2  0  0  0
 11 43  1  0  0  0
 12 17  1  0  0  0
 12 19  2  0  0  0
 13 14  1  0  0  0
 13 15  2  0  0  0
 14 37  2  0  0  0
 14 44  1  0  0  0
 15 33  1  0  0  0
 15 45  1  0  0  0
 16 33  2  0  0  0
 16 36  1  0  0  0
 16 37  1  0  0  0
 18 46  1  0  0  0
 19 20  1  0  0  0
 19 47  1  0  0  0
 20 21  1  0  0  0
 21 27  1  0  0  0
 21 48  1  0  0  0
 23 24  1  0  0  0
 23 49  1  0  0  0
 24 50  1  0  0  0
 25 51  1  0  0  0
 27 29  1  0  0  0
 27 52  1  0  0  0
 27 53  1  0  0  0
 28 29  1  0  0  0
 28 54  1  0  0  0
 28 55  1  0  0  0
 29 30  1  0  0  0
 30 31  1  0  0  0
 30 56  1  0  0  0
 30 57  1  0  0  0
 31 32  2  0  0  0
 33 34  1  0  0  0
 34 35  2  0  0  0
 35 36  1  0  0  0
 35 58  1  0  0  0
 37 59  1  0  0  0
M  END
> <s_m_entry_id>
1869

> <s_m_entry_name>
7gnn.pdb.1_A_ligand

> <s_pdb_PDB_TITLE>
GROUP DEPOSITION SARS-COV-2 MAIN PROTEASE IN COMPLEX WITH INHIBITORS FROM THE COVID MOONSHOT -- CRYSTAL STRUCTURE OF SARS-COV-2 MAIN PROTEASE IN COMPLEX WITH NIR-WEI-DCC3321B-3 (MPRO-P2775)

> <s_pdb_PDB_ID>
7GNN

> <s_m_Source_File>
7gnn.pdb.gz

> <s_user_Compound_ID>
NIR-WEI-dcc3321b-3

> <s_user_Monomer-Dimer>
Dimer

> <s_user_xcode>
Mpro-P2775

$$$$
