7GNO_ligand
                    3D
 Schrodinger Suite 2021-2.
 65 69  0  0  1  0            999 V2000
   10.2166   -5.3242   23.8407 N   0  0  0  0  0  0
    8.5634   -1.0223   20.9349 N   0  0  0  0  0  0
   11.8358   -8.3034   20.4201 C   0  0  0  0  0  0
   10.1859   -6.1754   21.0658 C   0  0  0  0  0  0
   10.5205   -6.4021   19.7436 C   0  0  0  0  0  0
   11.3360   -7.4711   19.4435 C   0  0  0  0  0  0
   11.3206   -4.6207   24.1152 C   0  0  0  0  0  0
    9.8282   -1.2191   23.7522 C   0  0  0  0  0  0
    8.4168   -1.5356   19.6312 C   0  0  0  0  0  0
    8.0427   -2.6620   17.1497 C   0  0  0  0  0  0
   10.3529   -3.5928   17.1835 C   0  0  0  0  0  0
   10.7539   -2.4564   19.6865 C   0  0  0  0  0  0
    9.4915   -2.2866   19.0622 C   0  0  0  0  0  0
    9.1006   -2.5959   25.5815 C   0  0  0  0  0  0
    6.7502   -2.2897   26.4201 C   0  0  0  0  0  0
    7.4309   -1.0269   24.4797 C   0  0  0  0  0  0
    5.2447   -0.7366   25.4341 C   0  0  0  0  0  0
   12.4343   -5.1378   24.1516 O   0  0  0  0  0  0
   10.2683   -6.7565   23.5224 C   0  0  2  0  0  0
   10.6496   -7.0053   22.0759 C   0  0  0  0  0  0
   11.6444   -7.7590   18.0332 N   0  3  0  0  0  0
   12.3042   -8.7528   17.7776 O   0  0  0  0  0  0
   11.2210   -6.9948   17.1794 O   0  5  0  0  0  0
   11.4780   -8.0671   21.7344 C   0  0  0  0  0  0
    8.9524   -7.4245   23.9052 C   0  0  0  0  0  0
   11.1593   -3.1348   24.3947 C   0  0  0  0  0  0
    9.8091   -2.5832   24.2905 N   0  0  2  0  0  0
    7.7322   -1.9593   25.4864 C   0  0  0  0  0  0
    6.1854   -0.3963   24.4817 C   0  0  0  0  0  0
    3.6942    0.0675   25.4216 Cl  0  0  0  0  0  0
    5.5039   -1.6903   26.3929 C   0  0  0  0  0  0
    8.4182   -0.7772   23.3505 C   0  0  2  0  0  0
    8.0074   -1.5048   22.0682 C   0  0  0  0  0  0
    7.2712   -2.4853   22.0783 O   0  0  0  0  0  0
   11.7550   -3.1535   19.0698 C   0  0  0  0  0  0
   11.5546   -3.7188   17.8193 C   0  0  0  0  0  0
    9.2933   -2.8681   17.7820 C   0  0  0  0  0  0
    7.0503   -1.9551   17.6765 N   0  0  0  0  0  0
    7.2493   -1.4147   18.8840 C   0  0  0  0  0  0
    9.3140   -4.8711   23.8486 H   0  0  0  0  0  0
    9.1358   -0.2057   21.0947 H   0  0  0  0  0  0
   12.4913   -9.1185   20.1514 H   0  0  0  0  0  0
    9.5530   -5.3402   21.3271 H   0  0  0  0  0  0
   10.1440   -5.7475   18.9715 H   0  0  0  0  0  0
   10.4823   -1.1818   22.8811 H   0  0  0  0  0  0
   10.2214   -0.5370   24.5060 H   0  0  0  0  0  0
    7.8514   -3.0928   16.1780 H   0  0  0  0  0  0
   10.2038   -4.0480   16.2156 H   0  0  0  0  0  0
   10.9349   -2.0320   20.6630 H   0  0  0  0  0  0
    9.6953   -2.0674   26.3265 H   0  0  0  0  0  0
    8.9988   -3.6239   25.9291 H   0  0  0  0  0  0
    6.9562   -3.0260   27.1829 H   0  0  0  0  0  0
   11.0479   -7.1980   24.1431 H   0  0  0  0  0  0
   11.8438   -8.7138   22.5182 H   0  0  0  0  0  0
    9.0003   -8.4868   23.6653 H   0  0  0  0  0  0
    8.7794   -7.3014   24.9743 H   0  0  0  0  0  0
    8.1354   -6.9637   23.3500 H   0  0  0  0  0  0
   11.8275   -2.5728   23.7422 H   0  0  0  0  0  0
   11.5633   -2.9098   25.3818 H   0  0  0  0  0  0
    5.9595    0.3555   23.7399 H   0  0  0  0  0  0
    4.7531   -1.9725   27.1161 H   0  0  0  0  0  0
    8.4402    0.2930   23.1450 H   0  0  0  0  0  0
   12.7124   -3.2679   19.5565 H   0  0  0  0  0  0
   12.3602   -4.2627   17.3486 H   0  0  0  0  0  0
    6.4154   -0.8492   19.2729 H   0  0  0  0  0  0
  1  7  1  0  0  0
  1 19  1  0  0  0
  1 40  1  0  0  0
  2  9  1  0  0  0
  2 33  1  0  0  0
  2 41  1  0  0  0
  3  6  1  0  0  0
  3 24  2  0  0  0
  3 42  1  0  0  0
  4  5  1  0  0  0
  4 20  2  0  0  0
  4 43  1  0  0  0
  5  6  2  0  0  0
  5 44  1  0  0  0
  6 21  1  0  0  0
  7 18  2  0  0  0
  7 26  1  0  0  0
  8 27  1  0  0  0
  8 32  1  0  0  0
  8 45  1  0  0  0
  8 46  1  0  0  0
  9 13  1  0  0  0
  9 39  2  0  0  0
 10 37  1  0  0  0
 10 38  2  0  0  0
 10 47  1  0  0  0
 11 36  1  0  0  0
 11 37  2  0  0  0
 11 48  1  0  0  0
 12 13  2  0  0  0
 12 35  1  0  0  0
 12 49  1  0  0  0
 13 37  1  0  0  0
 14 27  1  0  0  0
 14 28  1  0  0  0
 14 50  1  0  0  0
 14 51  1  0  0  0
 15 28  1  0  0  0
 15 31  2  0  0  0
 15 52  1  0  0  0
 16 28  2  0  0  0
 16 29  1  0  0  0
 16 32  1  0  0  0
 17 29  2  0  0  0
 17 30  1  0  0  0
 17 31  1  0  0  0
 19 20  1  0  0  0
 19 25  1  0  0  0
 19 53  1  0  0  0
 20 24  1  0  0  0
 21 22  2  0  0  0
 21 23  1  0  0  0
 24 54  1  0  0  0
 25 55  1  0  0  0
 25 56  1  0  0  0
 25 57  1  0  0  0
 26 27  1  0  0  0
 26 58  1  0  0  0
 26 59  1  0  0  0
 29 60  1  0  0  0
 31 61  1  0  0  0
 32 33  1  0  0  0
 32 62  1  0  0  0
 33 34  2  0  0  0
 35 36  2  0  0  0
 35 63  1  0  0  0
 36 64  1  0  0  0
 38 39  1  0  0  0
 39 65  1  0  0  0
M  CHG  2  21   1  23  -1
M  END
> <s_m_entry_id>
1871

> <s_m_entry_name>
7gno.pdb.1_A_ligand

> <s_pdb_PDB_TITLE>
GROUP DEPOSITION SARS-COV-2 MAIN PROTEASE IN COMPLEX WITH INHIBITORS FROM THE COVID MOONSHOT -- CRYSTAL STRUCTURE OF SARS-COV-2 MAIN PROTEASE IN COMPLEX WITH NIR-WEI-DCC3321B-4 (MPRO-P2838)

> <s_pdb_PDB_ID>
7GNO

> <s_m_Source_File>
7gno.pdb.gz

> <s_user_Compound_ID>
NIR-WEI-dcc3321b-4

> <s_user_Monomer-Dimer>
Dimer

> <s_user_xcode>
Mpro-P2838

$$$$
