7GNP_ligand
                    3D
 Schrodinger Suite 2021-2.
 72 78  0  0  1  0            999 V2000
   10.0423   -1.8793   23.8191 N   0  0  2  0  0  0
    7.1221   -1.8306   17.3806 N   0  0  0  0  0  0
   11.9996   -6.3428   22.0986 C   0  0  0  0  0  0
    9.0013   -8.2561   22.2507 C   0  0  0  0  0  0
    9.4398   -7.3811   21.0606 C   0  0  1  0  0  0
    9.5820   -5.9208   21.5230 C   0  0  0  0  0  0
   10.2041   -6.7022   23.8232 C   0  0  0  0  0  0
   11.6714   -3.7593   23.6982 C   0  0  0  0  0  0
    8.3912   -0.2918   23.0083 C   0  0  1  0  0  0
    8.4410   -1.3425   19.3609 C   0  0  0  0  0  0
    8.0494   -2.7007   16.9910 C   0  0  0  0  0  0
   11.3264   -4.1507   18.0286 C   0  0  0  0  0  0
   11.5344   -3.4734   19.2216 C   0  0  0  0  0  0
   10.6227   -2.5576   19.6744 C   0  0  0  0  0  0
    9.3774   -2.1073   25.1152 C   0  0  0  0  0  0
    7.1002   -1.9578   26.1708 C   0  0  0  0  0  0
    7.5039   -0.6604   24.1825 C   0  0  0  0  0  0
   12.6703   -4.3048   24.1592 O   0  0  0  0  0  0
   10.6962   -4.4097   23.0479 N   0  0  0  0  0  0
   10.6421   -5.8250   22.6443 C   0  0  1  0  0  0
   11.8540   -7.8041   21.6389 C   0  0  1  0  0  0
   11.4071   -8.6734   22.8312 C   0  0  0  0  0  0
   10.7923   -7.8833   20.5283 C   0  0  0  0  0  0
   10.0580   -8.1650   23.3564 C   0  0  2  0  0  0
    9.5791   -8.9621   24.4495 O   0  0  0  0  0  0
   11.4510   -2.2648   23.8390 C   0  0  0  0  0  0
    7.9646   -1.5637   25.1489 C   0  0  0  0  0  0
    6.2186   -0.1309   24.2948 C   0  0  0  0  0  0
    5.3985   -0.5338   25.3253 C   0  0  0  0  0  0
    3.7924    0.1311   25.4367 Cl  0  0  0  0  0  0
    5.8138   -1.4561   26.2551 C   0  0  0  0  0  0
    9.8585   -0.5026   23.3715 C   0  0  0  0  0  0
    8.0799   -1.1676   21.7946 C   0  0  0  0  0  0
    7.4681   -2.2293   21.8924 O   0  0  0  0  0  0
    8.5608   -0.7046   20.6145 N   0  0  0  0  0  0
    9.4415   -2.2807   18.9427 C   0  0  0  0  0  0
   10.2045   -3.9194   17.2872 C   0  0  0  0  0  0
    9.2349   -2.9790   17.7173 C   0  0  0  0  0  0
    7.3311   -1.1809   18.5343 C   0  0  0  0  0  0
   12.7532   -6.2825   22.8837 H   0  0  0  0  0  0
   12.3108   -5.7262   21.2553 H   0  0  0  0  0  0
    8.9057   -9.2916   21.9242 H   0  0  0  0  0  0
    8.0451   -7.8977   22.6320 H   0  0  0  0  0  0
    8.6922   -7.4412   20.2697 H   0  0  0  0  0  0
    8.6230   -5.5639   21.8986 H   0  0  0  0  0  0
    9.8881   -5.3012   20.6801 H   0  0  0  0  0  0
    9.2475   -6.3458   24.2052 H   0  0  0  0  0  0
   10.9516   -6.6465   24.6145 H   0  0  0  0  0  0
    8.2304    0.7547   22.7490 H   0  0  0  0  0  0
    7.9232   -3.2473   16.0681 H   0  0  0  0  0  0
   12.0554   -4.8674   17.6803 H   0  0  0  0  0  0
   12.4231   -3.6660   19.8041 H   0  0  0  0  0  0
   10.7987   -2.0339   20.6024 H   0  0  0  0  0  0
    9.9630   -1.6439   25.9092 H   0  0  0  0  0  0
    9.3597   -3.1758   25.3302 H   0  0  0  0  0  0
    7.4314   -2.6672   26.9147 H   0  0  0  0  0  0
    9.8593   -3.9175   22.7696 H   0  0  0  0  0  0
   12.8095   -8.1659   21.2592 H   0  0  0  0  0  0
   12.1520   -8.6121   23.6246 H   0  0  0  0  0  0
   11.3036   -9.7089   22.5070 H   0  0  0  0  0  0
   11.1023   -7.2662   19.6850 H   0  0  0  0  0  0
   10.6907   -8.9165   20.1961 H   0  0  0  0  0  0
   10.2139   -8.9337   25.1691 H   0  0  0  0  0  0
   11.9080   -1.9175   24.7656 H   0  0  0  0  0  0
   11.9798   -1.7444   23.0405 H   0  0  0  0  0  0
    5.8682    0.5935   23.5745 H   0  0  0  0  0  0
    5.1544   -1.7902   27.0425 H   0  0  0  0  0  0
   10.4795   -0.3201   22.4945 H   0  0  0  0  0  0
   10.1355    0.1803   24.1747 H   0  0  0  0  0  0
    9.0414    0.1808   20.6867 H   0  0  0  0  0  0
   10.0482   -4.4551   16.3626 H   0  0  0  0  0  0
    6.6053   -0.4645   18.8898 H   0  0  0  0  0  0
  1 15  1  0  0  0
  1 26  1  0  0  0
  1 32  1  0  0  0
  2 11  1  0  0  0
  2 39  2  0  0  0
  3 20  1  0  0  0
  3 21  1  0  0  0
  3 40  1  0  0  0
  3 41  1  0  0  0
  4  5  1  0  0  0
  4 24  1  0  0  0
  4 42  1  0  0  0
  4 43  1  0  0  0
  5  6  1  0  0  0
  5 23  1  0  0  0
  5 44  1  0  0  0
  6 20  1  0  0  0
  6 45  1  0  0  0
  6 46  1  0  0  0
  7 20  1  0  0  0
  7 24  1  0  0  0
  7 47  1  0  0  0
  7 48  1  0  0  0
  8 18  2  0  0  0
  8 19  1  0  0  0
  8 26  1  0  0  0
  9 17  1  0  0  0
  9 32  1  0  0  0
  9 33  1  0  0  0
  9 49  1  0  0  0
 10 35  1  0  0  0
 10 36  2  0  0  0
 10 39  1  0  0  0
 11 38  2  0  0  0
 11 50  1  0  0  0
 12 13  1  0  0  0
 12 37  2  0  0  0
 12 51  1  0  0  0
 13 14  2  0  0  0
 13 52  1  0  0  0
 14 36  1  0  0  0
 14 53  1  0  0  0
 15 27  1  0  0  0
 15 54  1  0  0  0
 15 55  1  0  0  0
 16 27  1  0  0  0
 16 31  2  0  0  0
 16 56  1  0  0  0
 17 27  2  0  0  0
 17 28  1  0  0  0
 19 20  1  0  0  0
 19 57  1  0  0  0
 21 22  1  0  0  0
 21 23  1  0  0  0
 21 58  1  0  0  0
 22 24  1  0  0  0
 22 59  1  0  0  0
 22 60  1  0  0  0
 23 61  1  0  0  0
 23 62  1  0  0  0
 24 25  1  0  0  0
 25 63  1  0  0  0
 26 64  1  0  0  0
 26 65  1  0  0  0
 28 29  2  0  0  0
 28 66  1  0  0  0
 29 30  1  0  0  0
 29 31  1  0  0  0
 31 67  1  0  0  0
 32 68  1  0  0  0
 32 69  1  0  0  0
 33 34  2  0  0  0
 33 35  1  0  0  0
 35 70  1  0  0  0
 36 38  1  0  0  0
 37 38  1  0  0  0
 37 71  1  0  0  0
 39 72  1  0  0  0
M  END
> <s_m_entry_id>
1873

> <s_m_entry_name>
7gnp.pdb.1_A_ligand

> <s_pdb_PDB_TITLE>
GROUP DEPOSITION SARS-COV-2 MAIN PROTEASE IN COMPLEX WITH INHIBITORS FROM THE COVID MOONSHOT -- CRYSTAL STRUCTURE OF SARS-COV-2 MAIN PROTEASE IN COMPLEX WITH NIR-WEI-DCC3321B-5 (MPRO-P2889)

> <s_pdb_PDB_ID>
7GNP

> <s_m_Source_File>
7gnp.pdb.gz

> <s_user_Compound_ID>
NIR-WEI-dcc3321b-5

> <s_user_Monomer-Dimer>
Dimer

> <s_user_xcode>
Mpro-P2889

$$$$
