7GNR_ligand
                    3D
 Schrodinger Suite 2021-2.
 57 62  0  0  1  0            999 V2000
    9.6181   -3.0010   24.4807 N   0  0  0  0  0  0
    7.0436   -2.0676   17.6164 N   0  0  0  0  0  0
   12.1355   -3.3510   24.6291 C   0  0  0  0  0  0
    9.7467   -1.6789   23.8665 C   0  0  0  0  0  0
    8.3935   -1.1562   23.3127 C   0  0  2  0  0  0
    8.5213    0.2690   22.7199 C   0  0  0  0  0  0
    9.0298    0.0085   21.3087 C   0  0  0  0  0  0
    8.3506   -1.7805   19.6366 C   0  0  0  0  0  0
    9.2046   -3.1695   17.8259 C   0  0  0  0  0  0
   11.3469   -4.2827   18.0053 C   0  0  0  0  0  0
   10.5999   -2.8904   19.8074 C   0  0  0  0  0  0
    6.2944   -0.3742   24.5351 C   0  0  0  0  0  0
    5.2813   -0.6396   25.4349 C   0  0  0  0  0  0
    5.3122   -1.7420   26.2632 C   0  0  0  0  0  0
    7.4038   -2.3986   25.2586 C   0  0  0  0  0  0
    8.3922   -4.4957   25.6281 O   0  0  0  0  0  0
    8.4991   -3.3790   25.1619 C   0  0  0  0  0  0
   10.7724   -3.9394   24.3794 C   0  0  0  0  0  0
   11.5137   -4.2350   25.6561 C   0  0  0  0  0  0
   10.7106   -5.0783   23.3550 C   0  0  0  0  0  0
   11.6932   -5.7888   23.2091 O   0  0  0  0  0  0
    9.6012   -5.2163   22.6398 N   0  0  0  0  0  0
    9.5610   -6.0695   21.4671 C   0  0  0  0  0  0
    6.3832   -2.6152   26.1838 C   0  0  0  0  0  0
    3.8994    0.4185   25.4868 Cl  0  0  0  0  0  0
    7.3525   -1.2756   24.4201 C   0  0  0  0  0  0
    8.0161   -1.9743   22.0774 C   0  0  0  0  0  0
    7.4441   -3.0483   22.0732 O   0  0  0  0  0  0
    8.4376   -1.2976   20.9763 N   0  0  0  0  0  0
    9.3926   -2.5982   19.1159 C   0  0  0  0  0  0
   11.5485   -3.7082   19.2554 C   0  0  0  0  0  0
   10.2061   -4.0263   17.2992 C   0  0  0  0  0  0
    8.0055   -2.8512   17.1317 C   0  0  0  0  0  0
    7.2252   -1.5574   18.8433 C   0  0  0  0  0  0
   11.8365   -2.3821   25.0291 H   0  0  0  0  0  0
   12.7428   -4.0905   24.1072 H   0  0  0  0  0  0
   10.4760   -1.7243   23.0578 H   0  0  0  0  0  0
   10.1341   -0.9738   24.6019 H   0  0  0  0  0  0
    9.2759    0.8239   23.2773 H   0  0  0  0  0  0
    7.5333    0.7265   22.6674 H   0  0  0  0  0  0
   10.1157   -0.0836   21.3290 H   0  0  0  0  0  0
    8.6288    0.7669   20.6362 H   0  0  0  0  0  0
   12.0956   -4.9378   17.5849 H   0  0  0  0  0  0
   10.7796   -2.4649   20.7837 H   0  0  0  0  0  0
    6.2604    0.5214   23.9324 H   0  0  0  0  0  0
    4.5074   -1.9150   26.9623 H   0  0  0  0  0  0
   11.0693   -3.4729   26.2962 H   0  0  0  0  0  0
   11.9757   -5.1812   25.3743 H   0  0  0  0  0  0
    8.7624   -4.7220   22.9085 H   0  0  0  0  0  0
    8.5628   -6.0408   21.0303 H   0  0  0  0  0  0
   10.2876   -5.7165   20.7352 H   0  0  0  0  0  0
    9.8024   -7.0931   21.7534 H   0  0  0  0  0  0
    6.4321   -3.4709   26.8409 H   0  0  0  0  0  0
   12.4601   -3.9058   19.7999 H   0  0  0  0  0  0
   10.0706   -4.4835   16.3302 H   0  0  0  0  0  0
    7.9011   -3.2905   16.1506 H   0  0  0  0  0  0
    6.4685   -0.9241   19.2823 H   0  0  0  0  0  0
  1  4  1  0  0  0
  1 17  1  0  0  0
  1 18  1  0  0  0
  2 33  2  0  0  0
  2 34  1  0  0  0
  3 18  1  0  0  0
  3 19  1  0  0  0
  3 35  1  0  0  0
  3 36  1  0  0  0
  4  5  1  0  0  0
  4 37  1  0  0  0
  4 38  1  0  0  0
  5  6  1  0  0  0
  5 26  1  0  0  0
  5 27  1  0  0  0
  6  7  1  0  0  0
  6 39  1  0  0  0
  6 40  1  0  0  0
  7 29  1  0  0  0
  7 41  1  0  0  0
  7 42  1  0  0  0
  8 29  1  0  0  0
  8 30  1  0  0  0
  8 34  2  0  0  0
  9 30  1  0  0  0
  9 32  2  0  0  0
  9 33  1  0  0  0
 10 31  2  0  0  0
 10 32  1  0  0  0
 10 43  1  0  0  0
 11 30  2  0  0  0
 11 31  1  0  0  0
 11 44  1  0  0  0
 12 13  1  0  0  0
 12 26  2  0  0  0
 12 45  1  0  0  0
 13 14  2  0  0  0
 13 25  1  0  0  0
 14 24  1  0  0  0
 14 46  1  0  0  0
 15 17  1  0  0  0
 15 24  2  0  0  0
 15 26  1  0  0  0
 16 17  2  0  0  0
 18 19  1  0  0  0
 18 20  1  0  0  0
 19 47  1  0  0  0
 19 48  1  0  0  0
 20 21  2  0  0  0
 20 22  1  0  0  0
 22 23  1  0  0  0
 22 49  1  0  0  0
 23 50  1  0  0  0
 23 51  1  0  0  0
 23 52  1  0  0  0
 24 53  1  0  0  0
 27 28  2  0  0  0
 27 29  1  0  0  0
 31 54  1  0  0  0
 32 55  1  0  0  0
 33 56  1  0  0  0
 34 57  1  0  0  0
M  END
> <s_m_entry_id>
1875

> <s_m_entry_name>
7gnr.pdb.1_A_ligand

> <s_pdb_PDB_TITLE>
GROUP DEPOSITION SARS-COV-2 MAIN PROTEASE IN COMPLEX WITH INHIBITORS FROM THE COVID MOONSHOT -- CRYSTAL STRUCTURE OF SARS-COV-2 MAIN PROTEASE IN COMPLEX WITH MAT-POS-E48723DC-2 (MPRO-P3038)

> <s_pdb_PDB_ID>
7GNR

> <s_m_Source_File>
7gnr.pdb.gz

> <s_user_Compound_ID>
MAT-POS-e48723dc-2

> <s_user_Monomer-Dimer>
Dimer

> <s_user_xcode>
Mpro-P3038

$$$$
