7GNS_ligand
                    3D
 Schrodinger Suite 2021-2.
 61 66  0  0  1  0            999 V2000
    9.1160   -3.2096   24.5328 N   0  0  2  0  0  0
    6.9431   -1.8288   17.8188 N   0  0  0  0  0  0
    8.0916   -1.1992   23.5948 C   0  0  1  0  0  0
    9.4078   -1.8309   24.1116 C   0  0  0  0  0  0
    8.2583   -3.2782   25.7229 C   0  0  0  0  0  0
    7.0365   -2.3928   25.5664 C   0  0  0  0  0  0
    5.9501   -2.5862   26.4181 C   0  0  0  0  0  0
    4.7761   -0.8003   25.3734 C   0  0  0  0  0  0
    9.1778   -5.2302   22.6973 C   0  0  0  0  0  0
   10.0710   -6.6997   20.6791 C   0  0  0  0  0  0
    8.9437   -7.7287   22.6817 C   0  0  0  0  0  0
    7.9009   -2.5742   17.2790 C   0  0  0  0  0  0
    9.0883   -2.9637   17.9589 C   0  0  0  0  0  0
   10.0836   -3.7854   17.3705 C   0  0  0  0  0  0
   11.3856   -3.6939   19.3795 C   0  0  0  0  0  0
    9.2648   -2.5133   19.3010 C   0  0  0  0  0  0
    8.3545   -8.6173   23.0815 N   0  0  0  0  0  0
    9.6512   -6.5658   22.1282 C   0  0  0  0  0  0
   11.1037   -6.7596   21.7436 C   0  0  0  0  0  0
   10.0369   -4.4724   24.0666 S   0  0  0  0  0  0
   11.2676   -3.9368   23.5803 O   0  0  0  0  0  0
   10.0632   -5.4013   25.1509 O   0  0  0  0  0  0
    6.9713   -1.3722   24.5994 C   0  0  0  0  0  0
    5.8404   -0.5601   24.5296 C   0  0  0  0  0  0
    3.3280    0.1563   25.1962 Cl  0  0  0  0  0  0
    4.8159   -1.7997   26.3193 C   0  0  0  0  0  0
    8.2679    0.2364   23.0171 C   0  0  1  0  0  0
    9.0723    1.2064   23.8788 C   0  0  0  0  0  0
    7.7184   -1.9530   22.3058 C   0  0  0  0  0  0
    7.0645   -2.9732   22.2342 O   0  0  0  0  0  0
    8.2687   -1.2866   21.2513 N   0  0  0  0  0  0
    8.9024   -0.0258   21.6549 C   0  0  0  0  0  0
    8.2286   -1.7136   19.8800 C   0  0  0  0  0  0
   10.4455   -2.9085   19.9865 C   0  0  0  0  0  0
   11.2014   -4.1360   18.0743 C   0  0  0  0  0  0
    7.1218   -1.4201   19.0846 C   0  0  0  0  0  0
   10.1437   -1.8452   23.3076 H   0  0  0  0  0  0
    9.7735   -1.2603   24.9654 H   0  0  0  0  0  0
    8.8260   -2.9619   26.5980 H   0  0  0  0  0  0
    7.9415   -4.3088   25.8829 H   0  0  0  0  0  0
    5.9849   -3.3602   27.1705 H   0  0  0  0  0  0
    8.1189   -5.3069   22.9439 H   0  0  0  0  0  0
    9.1016   -4.5074   21.8850 H   0  0  0  0  0  0
   10.1465   -5.6440   20.4185 H   0  0  0  0  0  0
    9.8961   -7.7669   20.5421 H   0  0  0  0  0  0
    7.8045   -2.9236   16.2616 H   0  0  0  0  0  0
    9.9619   -4.1397   16.3575 H   0  0  0  0  0  0
   12.2806   -3.9758   19.9142 H   0  0  0  0  0  0
   11.4251   -5.7181   21.7367 H   0  0  0  0  0  0
   11.1747   -7.8410   21.8603 H   0  0  0  0  0  0
    5.7944    0.2530   23.8202 H   0  0  0  0  0  0
    3.9786   -1.9742   26.9788 H   0  0  0  0  0  0
    7.2780    0.6633   22.8560 H   0  0  0  0  0  0
    9.1310    2.1737   23.3798 H   0  0  0  0  0  0
    8.5831    1.3260   24.8455 H   0  0  0  0  0  0
   10.0780    0.8132   24.0273 H   0  0  0  0  0  0
    9.9728   -0.1870   21.7826 H   0  0  0  0  0  0
    8.6055    0.7625   20.9631 H   0  0  0  0  0  0
   10.5934   -2.5777   21.0039 H   0  0  0  0  0  0
   11.9528   -4.7628   17.6173 H   0  0  0  0  0  0
    6.3710   -0.8115   19.5667 H   0  0  0  0  0  0
  1  4  1  0  0  0
  1  5  1  0  0  0
  1 20  1  0  0  0
  2 12  1  0  0  0
  2 36  2  0  0  0
  3  4  1  0  0  0
  3 23  1  0  0  0
  3 27  1  0  0  0
  3 29  1  0  0  0
  4 37  1  0  0  0
  4 38  1  0  0  0
  5  6  1  0  0  0
  5 39  1  0  0  0
  5 40  1  0  0  0
  6  7  1  0  0  0
  6 23  2  0  0  0
  7 26  2  0  0  0
  7 41  1  0  0  0
  8 24  2  0  0  0
  8 25  1  0  0  0
  8 26  1  0  0  0
  9 18  1  0  0  0
  9 20  1  0  0  0
  9 42  1  0  0  0
  9 43  1  0  0  0
 10 18  1  0  0  0
 10 19  1  0  0  0
 10 44  1  0  0  0
 10 45  1  0  0  0
 11 17  3  0  0  0
 11 18  1  0  0  0
 12 13  2  0  0  0
 12 46  1  0  0  0
 13 14  1  0  0  0
 13 16  1  0  0  0
 14 35  2  0  0  0
 14 47  1  0  0  0
 15 34  2  0  0  0
 15 35  1  0  0  0
 15 48  1  0  0  0
 16 33  2  0  0  0
 16 34  1  0  0  0
 18 19  1  0  0  0
 19 49  1  0  0  0
 19 50  1  0  0  0
 20 21  2  0  0  0
 20 22  2  0  0  0
 23 24  1  0  0  0
 24 51  1  0  0  0
 26 52  1  0  0  0
 27 28  1  0  0  0
 27 32  1  0  0  0
 27 53  1  0  0  0
 28 54  1  0  0  0
 28 55  1  0  0  0
 28 56  1  0  0  0
 29 30  2  0  0  0
 29 31  1  0  0  0
 31 32  1  0  0  0
 31 33  1  0  0  0
 32 57  1  0  0  0
 32 58  1  0  0  0
 33 36  1  0  0  0
 34 59  1  0  0  0
 35 60  1  0  0  0
 36 61  1  0  0  0
M  END
> <s_m_entry_id>
1877

> <s_m_entry_name>
7gns.pdb.1_A_ligand

> <s_pdb_PDB_TITLE>
GROUP DEPOSITION SARS-COV-2 MAIN PROTEASE IN COMPLEX WITH INHIBITORS FROM THE COVID MOONSHOT -- CRYSTAL STRUCTURE OF SARS-COV-2 MAIN PROTEASE IN COMPLEX WITH MAT-POS-50A80394-1 (MPRO-P3050)

> <s_pdb_PDB_ID>
7GNS

> <s_m_Source_File>
7gns.pdb.gz

> <s_user_Compound_ID>
MAT-POS-50a80394-1

> <s_user_Monomer-Dimer>
Dimer

> <s_user_xcode>
Mpro-P3050

$$$$
