7GNT_ligand
                    3D
 Schrodinger Suite 2021-2.
 64 69  0  0  1  0            999 V2000
    9.0362   -3.2735   24.7228 N   0  0  3  0  0  0
    6.9630   -1.8144   17.9402 N   0  0  0  0  0  0
    7.6612   -2.0439   22.4445 C   0  0  0  0  0  0
    7.9741   -1.3003   23.7492 C   0  0  2  0  0  0
    9.3108   -1.9114   24.2386 C   0  0  0  0  0  0
    8.2056   -3.2929   25.9354 C   0  0  0  0  0  0
    6.9401   -2.4743   25.7470 C   0  0  0  0  0  0
    4.6767   -1.9885   26.4590 C   0  0  0  0  0  0
    6.8118   -1.5300   24.7138 C   0  0  0  0  0  0
    9.5613   -6.6237   22.2826 C   0  0  0  0  0  0
   10.9878   -6.8163   21.8112 C   0  0  0  0  0  0
    7.1153   -1.4250   19.2150 C   0  0  0  0  0  0
    7.9258   -2.5587   17.4133 C   0  0  0  0  0  0
    9.0930   -2.9647   18.1144 C   0  0  0  0  0  0
   11.2101   -4.1270   18.2530 C   0  0  0  0  0  0
   10.4094   -2.9331   20.1697 C   0  0  0  0  0  0
    8.4180   -8.7377   23.2927 N   0  0  0  0  0  0
    8.9283   -7.8094   22.8754 C   0  0  0  0  0  0
    9.8943   -6.7574   20.8114 C   0  0  0  0  0  0
    9.0798   -5.2951   22.8744 C   0  0  0  0  0  0
    9.9261   -4.5633   24.2662 S   0  0  0  0  0  0
   11.1858   -4.0684   23.8097 O   0  0  0  0  0  0
    9.8957   -5.4982   25.3456 O   0  0  0  0  0  0
    5.6140   -0.8215   24.5707 C   0  0  0  0  0  0
    4.5680   -1.0674   25.4403 C   0  0  0  0  0  0
    3.0674   -0.1911   25.2328 Cl  0  0  0  0  0  0
    5.8643   -2.6806   26.6117 C   0  0  0  0  0  0
    8.1469    0.1573   23.2216 C   0  0  1  0  0  0
    8.9380    1.1089   24.1197 C   0  0  0  0  0  0
    8.1747    1.5068   25.3701 C   0  0  0  0  0  0
    7.0653   -3.0954   22.3445 O   0  0  0  0  0  0
    8.1984   -1.3344   21.4120 N   0  0  0  0  0  0
    8.7672   -0.0532   21.8461 C   0  0  0  0  0  0
    8.1983   -1.7380   20.0329 C   0  0  0  0  0  0
    9.2395   -2.5348   19.4667 C   0  0  0  0  0  0
   11.3652   -3.7024   19.5684 C   0  0  0  0  0  0
   10.1024   -3.7725   17.5345 C   0  0  0  0  0  0
   10.0148   -1.9567   23.4076 H   0  0  0  0  0  0
    9.7077   -1.3089   25.0556 H   0  0  0  0  0  0
    8.7763   -2.8911   26.7726 H   0  0  0  0  0  0
    7.9395   -4.3220   26.1766 H   0  0  0  0  0  0
    3.8423   -2.1604   27.1228 H   0  0  0  0  0  0
   11.0667   -7.8976   21.9235 H   0  0  0  0  0  0
   11.3077   -5.7746   21.7851 H   0  0  0  0  0  0
    6.3588   -0.8162   19.6876 H   0  0  0  0  0  0
    7.8498   -2.8947   16.3897 H   0  0  0  0  0  0
   11.9682   -4.7420   17.7912 H   0  0  0  0  0  0
   10.5533   -2.6274   21.1954 H   0  0  0  0  0  0
    9.9533   -5.7017   20.5466 H   0  0  0  0  0  0
    9.7123   -7.8246   20.6849 H   0  0  0  0  0  0
    8.0188   -5.3773   23.1098 H   0  0  0  0  0  0
    9.0109   -4.5570   22.0753 H   0  0  0  0  0  0
    5.5111   -0.0879   23.7848 H   0  0  0  0  0  0
    5.9496   -3.3924   27.4195 H   0  0  0  0  0  0
    7.1529    0.5812   23.0788 H   0  0  0  0  0  0
    9.2014    2.0039   23.5560 H   0  0  0  0  0  0
    9.8798    0.6395   24.4042 H   0  0  0  0  0  0
    8.7849    2.1827   25.9693 H   0  0  0  0  0  0
    7.2491    2.0081   25.0873 H   0  0  0  0  0  0
    7.9413    0.6157   25.9529 H   0  0  0  0  0  0
    9.8473   -0.1558   21.9503 H   0  0  0  0  0  0
    8.4298    0.7363   21.1746 H   0  0  0  0  0  0
   12.2478   -3.9806   20.1251 H   0  0  0  0  0  0
   10.0010   -4.1145   16.5151 H   0  0  0  0  0  0
  1  5  1  0  0  0
  1  6  1  0  0  0
  1 21  1  0  0  0
  2 12  1  0  0  0
  2 13  2  0  0  0
  3  4  1  0  0  0
  3 31  2  0  0  0
  3 32  1  0  0  0
  4  5  1  0  0  0
  4  9  1  0  0  0
  4 28  1  0  0  0
  5 38  1  0  0  0
  5 39  1  0  0  0
  6  7  1  0  0  0
  6 40  1  0  0  0
  6 41  1  0  0  0
  7  9  1  0  0  0
  7 27  2  0  0  0
  8 25  2  0  0  0
  8 27  1  0  0  0
  8 42  1  0  0  0
  9 24  2  0  0  0
 10 11  1  0  0  0
 10 18  1  0  0  0
 10 19  1  0  0  0
 10 20  1  0  0  0
 11 19  1  0  0  0
 11 43  1  0  0  0
 11 44  1  0  0  0
 12 34  2  0  0  0
 12 45  1  0  0  0
 13 14  1  0  0  0
 13 46  1  0  0  0
 14 35  1  0  0  0
 14 37  2  0  0  0
 15 36  2  0  0  0
 15 37  1  0  0  0
 15 47  1  0  0  0
 16 35  2  0  0  0
 16 36  1  0  0  0
 16 48  1  0  0  0
 17 18  3  0  0  0
 19 49  1  0  0  0
 19 50  1  0  0  0
 20 21  1  0  0  0
 20 51  1  0  0  0
 20 52  1  0  0  0
 21 22  2  0  0  0
 21 23  2  0  0  0
 24 25  1  0  0  0
 24 53  1  0  0  0
 25 26  1  0  0  0
 27 54  1  0  0  0
 28 29  1  0  0  0
 28 33  1  0  0  0
 28 55  1  0  0  0
 29 30  1  0  0  0
 29 56  1  0  0  0
 29 57  1  0  0  0
 30 58  1  0  0  0
 30 59  1  0  0  0
 30 60  1  0  0  0
 32 33  1  0  0  0
 32 34  1  0  0  0
 33 61  1  0  0  0
 33 62  1  0  0  0
 34 35  1  0  0  0
 36 63  1  0  0  0
 37 64  1  0  0  0
M  END
> <s_m_entry_id>
1879

> <s_m_entry_name>
7gnt.pdb.1_A_ligand

> <s_pdb_PDB_TITLE>
GROUP DEPOSITION SARS-COV-2 MAIN PROTEASE IN COMPLEX WITH INHIBITORS FROM THE COVID MOONSHOT -- CRYSTAL STRUCTURE OF SARS-COV-2 MAIN PROTEASE IN COMPLEX WITH MAT-POS-50A80394-2 (MPRO-P3054)

> <s_pdb_PDB_ID>
7GNT

> <s_m_Source_File>
7gnt.pdb.gz

> <s_user_Compound_ID>
MAT-POS-50a80394-2

> <s_user_Monomer-Dimer>
Dimer

> <s_user_xcode>
Mpro-P3054

$$$$
