7GNU_ligand
                    3D
 Schrodinger Suite 2021-2.
 61 66  0  0  1  0            999 V2000
    8.4815   -1.2312   21.3629 N   0  0  0  0  0  0
    8.2344   -8.7104   23.1426 N   0  0  0  0  0  0
    7.8876   -3.6664   25.6560 C   0  0  0  0  0  0
    9.2675   -2.1413   24.3271 C   0  0  0  0  0  0
    8.0564   -1.3187   23.8153 C   0  0  1  0  0  0
    8.4279    0.1818   23.8287 C   0  0  0  0  0  0
    9.4916    0.5192   22.7924 C   0  0  0  0  0  0
    7.7992   -1.8203   22.3970 C   0  0  0  0  0  0
    7.9271   -2.6325   17.4474 C   0  0  0  0  0  0
   10.1239   -3.8121   17.4968 C   0  0  0  0  0  0
   11.5009   -3.6321   19.4452 C   0  0  0  0  0  0
    6.8106   -1.5551   24.6848 C   0  0  0  0  0  0
    5.7195   -0.6814   24.6112 C   0  0  0  0  0  0
    8.9895   -5.3656   22.5413 C   0  0  0  0  0  0
   10.9042   -6.8377   21.6116 C   0  0  0  0  0  0
    8.7902   -7.8533   22.6414 C   0  0  0  0  0  0
    9.4473   -6.7105   21.9964 C   0  0  0  0  0  0
    9.8690   -6.8725   20.5541 C   0  0  0  0  0  0
    9.7369   -4.7939   24.0540 S   0  0  0  0  0  0
    9.6029   -5.8176   25.0392 O   0  0  0  0  0  0
   11.0374   -4.2908   23.7443 O   0  0  0  0  0  0
    8.8315   -3.5296   24.5399 N   0  0  1  0  0  0
    6.7521   -2.6691   25.5405 C   0  0  0  0  0  0
    5.6053   -2.8749   26.3036 C   0  0  0  0  0  0
    4.5184   -2.0256   26.2091 C   0  0  0  0  0  0
    4.5860   -0.9458   25.3587 C   0  0  0  0  0  0
    3.1980    0.1051   25.2022 Cl  0  0  0  0  0  0
    7.0512   -2.7568   22.2140 O   0  0  0  0  0  0
    9.0103    0.1450   21.4021 C   0  0  0  0  0  0
    8.3269   -1.7101   20.0164 C   0  0  0  0  0  0
    9.3541   -2.5015   19.4180 C   0  0  0  0  0  0
   10.5699   -2.8484   20.0654 C   0  0  0  0  0  0
   11.2751   -4.1200   18.1671 C   0  0  0  0  0  0
    9.1374   -2.9910   18.0964 C   0  0  0  0  0  0
    6.9835   -1.8813   17.9968 N   0  0  0  0  0  0
    7.1938   -1.4455   19.2487 C   0  0  0  0  0  0
    8.4138   -3.5095   26.5975 H   0  0  0  0  0  0
    7.4822   -4.6781   25.6665 H   0  0  0  0  0  0
    9.6182   -1.7224   25.2703 H   0  0  0  0  0  0
   10.0618   -2.1206   23.5810 H   0  0  0  0  0  0
    8.7874    0.4574   24.8201 H   0  0  0  0  0  0
    7.5352    0.7779   23.6392 H   0  0  0  0  0  0
   10.4063   -0.0284   23.0195 H   0  0  0  0  0  0
    9.7063    1.5873   22.8270 H   0  0  0  0  0  0
    7.7308   -2.9763   16.4426 H   0  0  0  0  0  0
    9.9600   -4.1957   16.5007 H   0  0  0  0  0  0
   12.4234   -3.8771   19.9504 H   0  0  0  0  0  0
    5.7674    0.1900   23.9749 H   0  0  0  0  0  0
    7.9060   -5.3776   22.6598 H   0  0  0  0  0  0
    9.1156   -4.6055   21.7703 H   0  0  0  0  0  0
   11.0350   -7.9087   21.7663 H   0  0  0  0  0  0
   11.1679   -5.7811   21.5661 H   0  0  0  0  0  0
    9.7525   -7.9518   20.4557 H   0  0  0  0  0  0
    9.8854   -5.8244   20.2555 H   0  0  0  0  0  0
    5.5532   -3.7108   26.9855 H   0  0  0  0  0  0
    3.6329   -2.2142   26.7980 H   0  0  0  0  0  0
    8.2329    0.8414   21.0878 H   0  0  0  0  0  0
    9.8354    0.2369   20.6957 H   0  0  0  0  0  0
   10.7521   -2.4816   21.0647 H   0  0  0  0  0  0
   12.0193   -4.7491   17.7014 H   0  0  0  0  0  0
    6.3943   -0.8441   19.6556 H   0  0  0  0  0  0
  1  8  1  0  0  0
  1 29  1  0  0  0
  1 30  1  0  0  0
  2 16  3  0  0  0
  3 22  1  0  0  0
  3 23  1  0  0  0
  3 37  1  0  0  0
  3 38  1  0  0  0
  4  5  1  0  0  0
  4 22  1  0  0  0
  4 39  1  0  0  0
  4 40  1  0  0  0
  5  6  1  0  0  0
  5  8  1  0  0  0
  5 12  1  0  0  0
  6  7  1  0  0  0
  6 41  1  0  0  0
  6 42  1  0  0  0
  7 29  1  0  0  0
  7 43  1  0  0  0
  7 44  1  0  0  0
  8 28  2  0  0  0
  9 34  1  0  0  0
  9 35  2  0  0  0
  9 45  1  0  0  0
 10 33  1  0  0  0
 10 34  2  0  0  0
 10 46  1  0  0  0
 11 32  1  0  0  0
 11 33  2  0  0  0
 11 47  1  0  0  0
 12 13  1  0  0  0
 12 23  2  0  0  0
 13 26  2  0  0  0
 13 48  1  0  0  0
 14 17  1  0  0  0
 14 19  1  0  0  0
 14 49  1  0  0  0
 14 50  1  0  0  0
 15 17  1  0  0  0
 15 18  1  0  0  0
 15 51  1  0  0  0
 15 52  1  0  0  0
 16 17  1  0  0  0
 17 18  1  0  0  0
 18 53  1  0  0  0
 18 54  1  0  0  0
 19 20  2  0  0  0
 19 21  2  0  0  0
 19 22  1  0  0  0
 23 24  1  0  0  0
 24 25  2  0  0  0
 24 55  1  0  0  0
 25 26  1  0  0  0
 25 56  1  0  0  0
 26 27  1  0  0  0
 29 57  1  0  0  0
 29 58  1  0  0  0
 30 31  1  0  0  0
 30 36  2  0  0  0
 31 32  2  0  0  0
 31 34  1  0  0  0
 32 59  1  0  0  0
 33 60  1  0  0  0
 35 36  1  0  0  0
 36 61  1  0  0  0
M  END
> <s_m_entry_id>
1881

> <s_m_entry_name>
7gnu.pdb.1_A_ligand

> <s_pdb_PDB_TITLE>
GROUP DEPOSITION SARS-COV-2 MAIN PROTEASE IN COMPLEX WITH INHIBITORS FROM THE COVID MOONSHOT -- CRYSTAL STRUCTURE OF SARS-COV-2 MAIN PROTEASE IN COMPLEX WITH ALP-POS-133E7CD9-2 (MPRO-P3074)

> <s_pdb_PDB_ID>
7GNU

> <s_m_Source_File>
7gnu.pdb.gz

> <s_user_Compound_ID>
ALP-POS-133e7cd9-2

> <s_user_Monomer-Dimer>
Dimer

> <s_user_xcode>
Mpro-P3074

$$$$
