Compound_6-7M8X
                    3D
 Structure written by MMmdl.
 53 56  0  0  1  0            999 V2000
    6.3008   -6.3629   25.4775 C   0  0  0  0  0  0
    6.8076   -4.9906   25.0015 C   0  0  0  0  0  0
    6.6065   -2.6446   25.5496 C   0  0  0  0  0  0
    4.0675   -6.0230   26.2754 C   0  0  0  0  0  0
    7.3397   -2.2261   24.4280 C   0  0  0  0  0  0
    5.9841   -1.6785   26.3397 C   0  0  0  0  0  0
   10.0437    3.5223   19.8112 C   0  0  0  0  0  0
   10.8233    3.4326   21.0387 C   0  0  0  0  0  0
    8.1548   -1.1835   21.6022 C   0  0  0  0  0  0
   11.7542    4.4521   21.2692 C   0  0  0  0  0  0
   12.4857    4.4933   22.4529 C   0  0  0  0  0  0
   12.2741    3.5285   23.4298 C   0  0  0  0  0  0
   11.3574    2.5056   23.2053 C   0  0  0  0  0  0
    8.9559    0.7078   22.9618 C   0  0  0  0  0  0
    8.2114   -0.4277   22.8724 C   0  0  0  0  0  0
    7.4138   -0.8745   24.0555 C   0  0  0  0  0  0
    6.7494    0.0636   24.8591 C   0  0  0  0  0  0
    8.8226   -1.2517   19.2856 C   0  0  0  0  0  0
    6.0486   -0.3313   25.9948 C   0  0  0  0  0  0
    7.6484   -1.3241   18.5233 C   0  0  0  0  0  0
    8.7016   -2.5857   16.8796 C   0  0  0  0  0  0
    9.9129   -2.5599   17.5715 C   0  0  0  0  0  0
    9.9742   -1.8759   18.7873 C   0  0  0  0  0  0
    9.5981    0.5239   20.6979 C   0  0  0  0  0  0
    9.7266    1.2342   21.8410 C   0  0  0  0  0  0
   10.6312    2.4134   22.0043 C   0  0  0  0  0  0
    8.8304   -0.6122   20.5422 N   0  0  0  0  0  0
    7.5795   -1.9732   17.3330 N   0  0  0  0  0  0
    9.4235    3.5911   18.8393 N   0  0  0  0  0  0
    7.5532   -2.2566   21.4945 O   0  0  0  0  0  0
    6.4535   -3.9645   25.9288 O   0  0  0  0  0  0
    4.9051   -6.5187   25.2414 O   0  0  0  0  0  0
    5.2519    0.8496   26.9642 Cl  0  0  0  0  0  0
    6.5640   -6.5450   26.5215 H   0  0  0  0  0  0
    6.8063   -7.1375   24.9000 H   0  0  0  0  0  0
    6.3826   -4.7805   24.0179 H   0  0  0  0  0  0
    7.8921   -5.0225   24.8877 H   0  0  0  0  0  0
    3.0247   -6.1280   25.9784 H   0  0  0  0  0  0
    4.2076   -6.5844   27.1974 H   0  0  0  0  0  0
    4.2445   -4.9702   26.4881 H   0  0  0  0  0  0
    7.8673   -2.9591   23.8390 H   0  0  0  0  0  0
    5.4207   -1.9822   27.2086 H   0  0  0  0  0  0
   11.9167    5.2334   20.5374 H   0  0  0  0  0  0
   13.2019    5.2865   22.6219 H   0  0  0  0  0  0
   12.8284    3.5660   24.3540 H   0  0  0  0  0  0
   11.2413    1.7548   23.9728 H   0  0  0  0  0  0
    8.9604    1.2673   23.8850 H   0  0  0  0  0  0
    6.7709    1.1131   24.6030 H   0  0  0  0  0  0
    6.7330   -0.8717   18.8767 H   0  0  0  0  0  0
    8.6178   -3.1118   15.9400 H   0  0  0  0  0  0
   10.7839   -3.0613   17.1771 H   0  0  0  0  0  0
   10.8972   -1.8558   19.3484 H   0  0  0  0  0  0
   10.1316    0.7799   19.7926 H   0  0  0  0  0  0
  1  2  1  0  0  0
  1 32  1  0  0  0
  1 34  1  0  0  0
  1 35  1  0  0  0
  2 31  1  0  0  0
  2 36  1  0  0  0
  2 37  1  0  0  0
  3  5  1  0  0  0
  3  6  2  0  0  0
  3 31  1  0  0  0
  4 32  1  0  0  0
  4 38  1  0  0  0
  4 39  1  0  0  0
  4 40  1  0  0  0
  5 16  2  0  0  0
  5 41  1  0  0  0
  6 19  1  0  0  0
  6 42  1  0  0  0
  7  8  1  0  0  0
  7 29  3  0  0  0
  8 10  1  0  0  0
  8 26  2  0  0  0
  9 15  1  0  0  0
  9 27  1  0  0  0
  9 30  2  0  0  0
 10 11  2  0  0  0
 10 43  1  0  0  0
 11 12  1  0  0  0
 11 44  1  0  0  0
 12 13  2  0  0  0
 12 45  1  0  0  0
 13 26  1  0  0  0
 13 46  1  0  0  0
 14 15  2  0  0  0
 14 25  1  0  0  0
 14 47  1  0  0  0
 15 16  1  0  0  0
 16 17  1  0  0  0
 17 19  2  0  0  0
 17 48  1  0  0  0
 18 20  1  0  0  0
 18 23  2  0  0  0
 18 27  1  0  0  0
 19 33  1  0  0  0
 20 28  2  0  0  0
 20 49  1  0  0  0
 21 22  2  0  0  0
 21 28  1  0  0  0
 21 50  1  0  0  0
 22 23  1  0  0  0
 22 51  1  0  0  0
 23 52  1  0  0  0
 24 25  2  0  0  0
 24 27  1  0  0  0
 24 53  1  0  0  0
 25 26  1  0  0  0
M  END
> <s_m_entry_id>
1551

> <s_m_entry_name>
7m8x.1_ligand

> <s_m_Source_Path>
/home/iakrani/Data_2/Ifigeneia/Mpro_water_data/Perampanel_analogue_structures

> <s_m_Source_File>
7m8x_minimized.mae

> <i_m_Source_File_Index>
1

> <s_pdb_PDB_TITLE>
CRYSTAL STRUCTURE OF THE SARS-COV-2(2019-NCOV) MAIN PROTEASE IN COMPLEX WITH COMPOUND 6

> <s_pdb_PDB_ID>
7M8X

> <r_pdb_PDB_CRYST1_a>
96.766

> <r_pdb_PDB_CRYST1_b>
81.27

> <r_pdb_PDB_CRYST1_c>
54.519

> <r_pdb_PDB_CRYST1_alpha>
90

> <r_pdb_PDB_CRYST1_beta>
116.83

> <r_pdb_PDB_CRYST1_gamma>
90

> <s_pdb_PDB_CRYST1_Space_Group>
C 1 2 1

> <i_pdb_PDB_CRYST1_z>
4

> <s_pdb_PDB_CLASSIFICATION>
VIRAL PROTEIN, HYDROLASE

> <s_pdb_PDB_DEPOSITION_DATE>
30-MAR-21

> <s_pdb_PDB_format_version>
3.30

> <r_pdb_PDB_R>
0.229000002145767

> <r_pdb_PDB_Rfree>
0.273000001907349

> <r_pdb_PDB_RESOLUTION>
1.74

> <s_pdb_PDB_EXPDTA>
X-RAY DIFFRACTION

> <r_pdb_PDB_EXPDTA_TEMPERATURE>
100

> <s_pdb_PDB_REMARK_350_Biomolecule_1_Chains>
A

> <s_pdb_PDB_REMARK_350_Biomolecule_1_Transformation_1>
1.000000 0.000000 0.000000   0.000000;0.000000 1.000000 0.000000   0.000000;0.000000 0.000000 1.000000   0.000000

> <s_ppw_entry_id_backup>
55

> <b_ppw_prepared>
1

> <s_ppw_prepared_with_version>
2018-1

> <b_ppw_assigned_bond_orders>
1

> <b_ppw_added_hydrogens>
1

> <b_ppw_treated_metals>
1

> <b_ppw_created_disulfur>
1

> <b_ppw_deleted_far_waters>
1

> <b_ppw_ran_protassign>
1

> <b_ppw_removed_non_hbond_waters>
1

> <r_i_Potential_Energy-OPLS3>
-1327.83529175643

> <r_i_RMS_Derivative-OPLS3>
0.0927565431665218

> <r_i_Max_Derivative-OPLS3>
2.83858705961464

> <r_i_Stretch_Energy-OPLS3>
136.558468997576

> <r_i_Bend_Energy-OPLS3>
571.39351315848

> <r_i_LJ-14_Energy-OPLS3>
1387.25279507163

> <r_i_El-14_Energy-OPLS3>
544.914748439105

> <r_i_Van_der_Waals_Energy-OPLS3>
-2830.28131415847

> <r_i_Electrostatic_Energy-OPLS3>
-1603.92554028046

> <r_i_Dihedral_Energy-OPLS3>
438.888933013604

> <r_i_target_temperature>
298

> <b_ppw_ran_impref>
1

> <s_pdb_PDB_REMARK_350_Biomolecule_1_Transformation_2>
-1.000000 0.000000 0.000000   0.000000;0.000000 1.000000 0.000000   0.000000;0.000000 0.000000 -1.000000   0.000000

> <s_m_subgroup_title>
Crystallographic_analogues

> <s_m_subgroupid>
Crystallographic_analogues

> <b_m_subgroup_collapsed>
0

$$$$
