Compound_21-7L13
                    3D
 Structure written by MMmdl.
 55 59  0  0  1  0            999 V2000
    8.0715   -1.4277   21.6587 C   0  0  0  0  0  0
    8.8156    0.5778   22.8917 C   0  0  0  0  0  0
    8.1382   -0.6046   22.8844 C   0  0  0  0  0  0
    7.3955   -1.0367   24.1023 C   0  0  0  0  0  0
    6.5980   -0.1209   24.8020 C   0  0  0  0  0  0
    8.6448   -1.5561   19.3223 C   0  0  0  0  0  0
    5.9230   -0.5002   25.9586 C   0  0  0  0  0  0
    6.0461   -1.8016   26.4413 C   0  0  0  0  0  0
    6.8009   -2.7499   25.7506 C   0  0  0  0  0  0
    7.2280   -5.1111   25.4202 C   0  0  0  0  0  0
    6.9845   -6.4302   26.1465 C   0  0  0  0  0  0
    7.4860   -2.3504   24.5930 C   0  0  0  0  0  0
    7.5468   -1.3992   18.4719 C   0  0  0  0  0  0
    8.4492   -2.8824   16.9279 C   0  0  0  0  0  0
    9.5827   -3.0893   17.7144 C   0  0  0  0  0  0
    9.6839   -2.4082   18.9291 C   0  0  0  0  0  0
    9.3718    0.3085   20.6106 C   0  0  0  0  0  0
    9.5001    1.0882   21.7073 C   0  0  0  0  0  0
   10.2954    2.3205   21.7166 C   0  0  0  0  0  0
   10.3360    3.2569   20.5821 C   0  0  0  0  0  0
   11.0052    2.6709   22.8176 C   0  0  0  0  0  0
   11.9813    4.6079   21.8391 C   0  0  0  0  0  0
    8.0655   -7.1062   26.7249 C   0  0  0  0  0  0
    7.8659   -8.2829   27.4457 C   0  0  0  0  0  0
    6.5828   -8.8058   27.5816 C   0  0  0  0  0  0
    5.5044   -8.1601   26.9812 C   0  0  0  0  0  0
    5.6973   -6.9779   26.2656 C   0  0  0  0  0  0
    8.6877   -0.8821   20.5532 N   0  0  0  0  0  0
    7.4408   -2.0488   17.2854 N   0  0  0  0  0  0
   11.2014    4.2990   20.7576 N   0  0  0  0  0  0
   11.8163    3.7641   22.8953 N   0  0  0  0  0  0
    7.4995   -2.5220   21.6255 O   0  0  0  0  0  0
    6.8180   -4.0336   26.2632 O   0  0  0  0  0  0
    9.6596    3.1699   19.5592 O   0  0  0  0  0  0
   12.7544    5.5604   21.8575 O   0  0  0  0  0  0
    4.9255    0.6402   26.7841 Cl  0  0  0  0  0  0
    4.3231   -6.2335   25.5329 Cl  0  0  0  0  0  0
    8.8267    1.1755   23.7922 H   0  0  0  0  0  0
    6.4880    0.8920   24.4406 H   0  0  0  0  0  0
    5.5169   -2.0912   27.3362 H   0  0  0  0  0  0
    6.6768   -5.1022   24.4783 H   0  0  0  0  0  0
    8.2871   -5.0157   25.1755 H   0  0  0  0  0  0
    8.1025   -3.0604   24.0633 H   0  0  0  0  0  0
    6.7256   -0.7516   18.7434 H   0  0  0  0  0  0
    8.3330   -3.3986   15.9876 H   0  0  0  0  0  0
   10.3611   -3.7648   17.3917 H   0  0  0  0  0  0
   10.5483   -2.5552   19.5603 H   0  0  0  0  0  0
    9.8368    0.5602   19.6672 H   0  0  0  0  0  0
   11.0520    2.0885   23.7264 H   0  0  0  0  0  0
    9.0670   -6.7126   26.6335 H   0  0  0  0  0  0
    8.7056   -8.7871   27.9011 H   0  0  0  0  0  0
    6.4246   -9.7162   28.1407 H   0  0  0  0  0  0
    4.5145   -8.5811   27.0713 H   0  0  0  0  0  0
   11.2629    4.9482   19.9871 H   0  0  0  0  0  0
   12.3626    3.9609   23.7217 H   0  0  0  0  0  0
  1  3  1  0  0  0
  1 28  1  0  0  0
  1 32  2  0  0  0
  2  3  2  0  0  0
  2 18  1  0  0  0
  2 38  1  0  0  0
  3  4  1  0  0  0
  4  5  1  0  0  0
  4 12  2  0  0  0
  5  7  2  0  0  0
  5 39  1  0  0  0
  6 13  1  0  0  0
  6 16  2  0  0  0
  6 28  1  0  0  0
  7  8  1  0  0  0
  7 36  1  0  0  0
  8  9  2  0  0  0
  8 40  1  0  0  0
  9 12  1  0  0  0
  9 33  1  0  0  0
 10 11  1  0  0  0
 10 33  1  0  0  0
 10 41  1  0  0  0
 10 42  1  0  0  0
 11 23  1  0  0  0
 11 27  2  0  0  0
 12 43  1  0  0  0
 13 29  2  0  0  0
 13 44  1  0  0  0
 14 15  2  0  0  0
 14 29  1  0  0  0
 14 45  1  0  0  0
 15 16  1  0  0  0
 15 46  1  0  0  0
 16 47  1  0  0  0
 17 18  2  0  0  0
 17 28  1  0  0  0
 17 48  1  0  0  0
 18 19  1  0  0  0
 19 20  1  0  0  0
 19 21  2  0  0  0
 20 30  1  0  0  0
 20 34  2  0  0  0
 21 31  1  0  0  0
 21 49  1  0  0  0
 22 30  1  0  0  0
 22 31  1  0  0  0
 22 35  2  0  0  0
 23 24  2  0  0  0
 23 50  1  0  0  0
 24 25  1  0  0  0
 24 51  1  0  0  0
 25 26  2  0  0  0
 25 52  1  0  0  0
 26 27  1  0  0  0
 26 53  1  0  0  0
 27 37  1  0  0  0
 30 54  1  0  0  0
 31 55  1  0  0  0
M  END
> <s_m_entry_id>
1534

> <s_m_entry_name>
7l13.1_ligand

> <s_m_Source_Path>
/home/iakrani/Data_2/Ifigeneia/Mpro_water_data/Perampanel_analogue_structures

> <s_m_Source_File>
7l13_minimized.mae

> <i_m_Source_File_Index>
1

> <s_pdb_PDB_TITLE>
CRYSTAL STRUCTURE OF THE SARS-COV-2(2019-NCOV) MAIN PROTEASE IN COMPLEX WITH COMPOUND 21

> <s_pdb_PDB_ID>
7L13

> <r_pdb_PDB_CRYST1_a>
67.805

> <r_pdb_PDB_CRYST1_b>
101.22

> <r_pdb_PDB_CRYST1_c>
104.037

> <r_pdb_PDB_CRYST1_alpha>
90

> <r_pdb_PDB_CRYST1_beta>
90

> <r_pdb_PDB_CRYST1_gamma>
90

> <s_pdb_PDB_CRYST1_Space_Group>
P 21 21 21

> <i_pdb_PDB_CRYST1_z>
8

> <s_pdb_PDB_CLASSIFICATION>
VIRAL PROTEIN, HYDROLASE

> <s_pdb_PDB_DEPOSITION_DATE>
14-DEC-20

> <s_pdb_PDB_format_version>
3.30

> <r_pdb_PDB_R>
0.196999996900558

> <r_pdb_PDB_Rfree>
0.247999995946884

> <r_pdb_PDB_RESOLUTION>
2.17

> <s_pdb_PDB_EXPDTA>
X-RAY DIFFRACTION

> <r_pdb_PDB_EXPDTA_TEMPERATURE>
100

> <s_pdb_PDB_REMARK_350_Biomolecule_1_Chains>
A, B

> <s_pdb_PDB_REMARK_350_Biomolecule_1_Transformation_1>
1.000000 0.000000 0.000000   0.000000;0.000000 1.000000 0.000000   0.000000;0.000000 0.000000 1.000000   0.000000

> <s_ppw_entry_id_backup>
89

> <b_ppw_prepared>
1

> <s_ppw_prepared_with_version>
2018-1

> <b_ppw_assigned_bond_orders>
1

> <b_ppw_added_hydrogens>
1

> <b_ppw_treated_metals>
1

> <b_ppw_created_disulfur>
1

> <b_ppw_deleted_far_waters>
1

> <b_ppw_ran_protassign>
1

> <b_ppw_removed_non_hbond_waters>
1

> <r_i_Potential_Energy-OPLS3>
-2992.91697700885

> <r_i_RMS_Derivative-OPLS3>
0.129475325485101

> <r_i_Max_Derivative-OPLS3>
7.02072555292248

> <r_i_Stretch_Energy-OPLS3>
270.55673900632

> <r_i_Bend_Energy-OPLS3>
1166.04632344897

> <r_i_LJ-14_Energy-OPLS3>
2786.32815420923

> <r_i_El-14_Energy-OPLS3>
1082.21993834776

> <r_i_Van_der_Waals_Energy-OPLS3>
-5844.48439085256

> <r_i_Electrostatic_Energy-OPLS3>
-3349.72785543232

> <r_i_Dihedral_Energy-OPLS3>
824.724949572585

> <r_i_target_temperature>
298

> <b_ppw_ran_impref>
1

> <s_m_subgroup_title>
Crystallographic_analogues

> <s_m_subgroupid>
Crystallographic_analogues

> <b_m_subgroup_collapsed>
0

$$$$
