Compound_14-7L12
                    3D
 Structure written by MMmdl.
 54 58  0  0  1  0            999 V2000
    8.1133   -1.2841   21.4772 C   0  0  0  0  0  0
    8.7970    0.7773   22.6450 C   0  0  0  0  0  0
    8.1587   -0.4256   22.6827 C   0  0  0  0  0  0
    7.4583   -0.8387   23.9377 C   0  0  0  0  0  0
    6.8062    0.1138   24.7367 C   0  0  0  0  0  0
    8.7263   -1.4923   19.1582 C   0  0  0  0  0  0
    6.2139   -0.2421   25.9442 C   0  0  0  0  0  0
    6.2363   -1.5678   26.3611 C   0  0  0  0  0  0
    6.8464   -2.5489   25.5824 C   0  0  0  0  0  0
    7.0613   -4.9127   25.1436 C   0  0  0  0  0  0
    6.7535   -6.2252   25.8374 C   0  0  0  0  0  0
    7.4757   -2.1683   24.3889 C   0  0  0  0  0  0
    7.6566   -1.3697   18.2662 C   0  0  0  0  0  0
    8.5683   -2.9694   16.8468 C   0  0  0  0  0  0
    9.6787   -3.1397   17.6753 C   0  0  0  0  0  0
    9.7602   -2.3841   18.8469 C   0  0  0  0  0  0
    9.3696    0.4551   20.3771 C   0  0  0  0  0  0
    9.4600    1.2770   21.4460 C   0  0  0  0  0  0
   10.1804    2.5567   21.4276 C   0  0  0  0  0  0
   10.8332    3.0015   22.5349 C   0  0  0  0  0  0
   10.1855    3.4574   20.2631 C   0  0  0  0  0  0
   11.6383    4.9550   21.5651 C   0  0  0  0  0  0
    5.4247   -6.5970   26.0525 C   0  0  0  0  0  0
    5.1390   -7.7857   26.7152 C   0  0  0  0  0  0
    6.1820   -8.5897   27.1711 C   0  0  0  0  0  0
    7.5085   -8.2242   26.9576 C   0  0  0  0  0  0
    7.7946   -7.0453   26.2777 C   0  0  0  0  0  0
    8.7339   -0.7650   20.3600 N   0  0  0  0  0  0
    7.5675   -2.0941   17.1213 N   0  0  0  0  0  0
   10.9470    4.5788   20.4453 N   0  0  0  0  0  0
   11.5645    4.1853   22.6411 N   0  5  0  0  0  0
    7.5573   -2.3872   21.4622 O   0  0  0  0  0  0
    6.7980   -3.8449   26.0512 O   0  0  0  0  0  0
    9.5636    3.2763   19.2166 O   0  0  0  0  0  0
   12.2752    5.9987   21.4548 O   0  0  0  0  0  0
    5.4620    0.9585   26.9276 Cl  0  0  0  0  0  0
    8.8062    1.4009   23.5273 H   0  0  0  0  0  0
    6.7614    1.1480   24.4299 H   0  0  0  0  0  0
    5.7596   -1.8368   27.2877 H   0  0  0  0  0  0
    6.4356   -4.8254   24.2531 H   0  0  0  0  0  0
    8.1034   -4.8980   24.8202 H   0  0  0  0  0  0
    8.0001   -2.9111   23.8092 H   0  0  0  0  0  0
    6.8404   -0.6943   18.4770 H   0  0  0  0  0  0
    8.4655   -3.5543   15.9447 H   0  0  0  0  0  0
   10.4479   -3.8542   17.4211 H   0  0  0  0  0  0
   10.6001   -2.5095   19.5144 H   0  0  0  0  0  0
    9.8221    0.6960   19.4253 H   0  0  0  0  0  0
   10.8398    2.3896   23.4244 H   0  0  0  0  0  0
    4.6169   -5.9635   25.7143 H   0  0  0  0  0  0
    4.1128   -8.0769   26.8851 H   0  0  0  0  0  0
    5.9576   -9.5076   27.6932 H   0  0  0  0  0  0
    8.3094   -8.8556   27.3116 H   0  0  0  0  0  0
    8.8232   -6.7642   26.1069 H   0  0  0  0  0  0
   10.9904    5.2229   19.6714 H   0  0  0  0  0  0
  1  3  1  0  0  0
  1 28  1  0  0  0
  1 32  2  0  0  0
  2  3  2  0  0  0
  2 18  1  0  0  0
  2 37  1  0  0  0
  3  4  1  0  0  0
  4  5  1  0  0  0
  4 12  2  0  0  0
  5  7  2  0  0  0
  5 38  1  0  0  0
  6 13  1  0  0  0
  6 16  2  0  0  0
  6 28  1  0  0  0
  7  8  1  0  0  0
  7 36  1  0  0  0
  8  9  2  0  0  0
  8 39  1  0  0  0
  9 12  1  0  0  0
  9 33  1  0  0  0
 10 11  1  0  0  0
 10 33  1  0  0  0
 10 40  1  0  0  0
 10 41  1  0  0  0
 11 23  1  0  0  0
 11 27  2  0  0  0
 12 42  1  0  0  0
 13 29  2  0  0  0
 13 43  1  0  0  0
 14 15  2  0  0  0
 14 29  1  0  0  0
 14 44  1  0  0  0
 15 16  1  0  0  0
 15 45  1  0  0  0
 16 46  1  0  0  0
 17 18  2  0  0  0
 17 28  1  0  0  0
 17 47  1  0  0  0
 18 19  1  0  0  0
 19 20  2  0  0  0
 19 21  1  0  0  0
 20 31  1  0  0  0
 20 48  1  0  0  0
 21 30  1  0  0  0
 21 34  2  0  0  0
 22 30  1  0  0  0
 22 31  1  0  0  0
 22 35  2  0  0  0
 23 24  2  0  0  0
 23 49  1  0  0  0
 24 25  1  0  0  0
 24 50  1  0  0  0
 25 26  2  0  0  0
 25 51  1  0  0  0
 26 27  1  0  0  0
 26 52  1  0  0  0
 27 53  1  0  0  0
 30 54  1  0  0  0
M  CHG  1  31  -1
M  END
> <s_m_entry_id>
1532

> <s_m_entry_name>
7l12.1_ligand

> <s_m_Source_Path>
/home/iakrani/Data_2/Ifigeneia/Mpro_water_data/Perampanel_analogue_structures

> <s_m_Source_File>
7l12_minimized.mae

> <i_m_Source_File_Index>
1

> <s_pdb_PDB_TITLE>
CRYSTAL STRUCTURE OF THE SARS-COV-2(2019-NCOV) MAIN PROTEASE IN COMPLEX WITH COMPOUND 14

> <s_pdb_PDB_ID>
7L12

> <r_pdb_PDB_CRYST1_a>
115.918

> <r_pdb_PDB_CRYST1_b>
54.02

> <r_pdb_PDB_CRYST1_c>
44.516

> <r_pdb_PDB_CRYST1_alpha>
90

> <r_pdb_PDB_CRYST1_beta>
101.26

> <r_pdb_PDB_CRYST1_gamma>
90

> <s_pdb_PDB_CRYST1_Space_Group>
C 1 2 1

> <i_pdb_PDB_CRYST1_z>
4

> <s_pdb_PDB_CLASSIFICATION>
VIRAL PROTEIN, HYDROLASE

> <s_pdb_PDB_DEPOSITION_DATE>
14-DEC-20

> <s_pdb_PDB_format_version>
3.30

> <r_pdb_PDB_R>
0.190999999642372

> <r_pdb_PDB_Rfree>
0.248999997973442

> <r_pdb_PDB_RESOLUTION>
1.8

> <s_pdb_PDB_EXPDTA>
X-RAY DIFFRACTION

> <r_pdb_PDB_EXPDTA_TEMPERATURE>
100

> <s_pdb_PDB_REMARK_350_Biomolecule_1_Chains>
A

> <s_pdb_PDB_REMARK_350_Biomolecule_1_Transformation_1>
1.000000 0.000000 0.000000   0.000000;0.000000 1.000000 0.000000   0.000000;0.000000 0.000000 1.000000   0.000000

> <s_ppw_entry_id_backup>
62

> <b_ppw_prepared>
1

> <s_ppw_prepared_with_version>
2018-1

> <b_ppw_assigned_bond_orders>
1

> <b_ppw_added_hydrogens>
1

> <b_ppw_treated_metals>
1

> <b_ppw_created_disulfur>
1

> <b_ppw_deleted_far_waters>
1

> <b_ppw_ran_protassign>
1

> <b_ppw_removed_non_hbond_waters>
1

> <r_i_Potential_Energy-OPLS3>
-1414.11135732483

> <r_i_RMS_Derivative-OPLS3>
0.0795081497733514

> <r_i_Max_Derivative-OPLS3>
1.1217855417737

> <r_i_Stretch_Energy-OPLS3>
140.804986295668

> <r_i_Bend_Energy-OPLS3>
583.871146424211

> <r_i_LJ-14_Energy-OPLS3>
1434.4834170628

> <r_i_El-14_Energy-OPLS3>
527.188772267191

> <r_i_Van_der_Waals_Energy-OPLS3>
-2900.89727523517

> <r_i_Electrostatic_Energy-OPLS3>
-1664.26190961314

> <r_i_Dihedral_Energy-OPLS3>
437.391020789837

> <r_i_target_temperature>
298

> <b_ppw_ran_impref>
1

> <s_pdb_PDB_REMARK_350_Biomolecule_1_Transformation_2>
-1.000000 0.000000 0.000000   -8.692260;0.000000 1.000000 0.000000   0.000000;0.000000 0.000000 -1.000000   43.659120

> <s_m_subgroup_title>
Crystallographic_analogues

> <s_m_subgroupid>
Crystallographic_analogues

> <b_m_subgroup_collapsed>
0

$$$$
