7M8N - minimized_ligand
                    3D
 Structure written by MMmdl.
 58 62  0  0  1  0            999 V2000
  -21.4994   -4.7180  -25.0670 C   0  0  0  0  0  0
  -18.9676   -6.5609  -25.1503 C   0  0  0  0  0  0
  -20.7260   -4.7344  -27.3485 C   0  0  0  0  0  0
  -19.2223   -5.2384  -25.5359 C   0  0  0  0  0  0
  -16.6859   -5.9394  -24.7534 C   0  0  0  0  0  0
  -17.6773   -6.9214  -24.7622 C   0  0  0  0  0  0
  -23.6031   -3.7464  -22.9993 C   0  0  0  0  0  0
  -25.0797   -4.8034  -24.5799 C   0  0  0  0  0  0
  -22.0437   -5.0726  -30.1461 C   0  0  0  0  0  0
  -22.3958   -4.8996  -31.4931 C   0  0  0  0  0  0
  -19.4147   -5.3442  -34.4678 C   0  0  0  0  0  0
  -19.5456   -7.5131  -35.7238 C   0  0  0  0  0  0
  -19.9586   -8.8353  -35.8741 C   0  0  0  0  0  0
  -19.8569   -6.7954  -34.5653 C   0  0  0  0  0  0
  -20.6655   -9.4619  -34.8521 C   0  0  0  0  0  0
  -20.9680   -8.7611  -33.6869 C   0  0  0  0  0  0
  -23.2244   -3.8312  -31.8284 C   0  0  0  0  0  0
  -23.6570   -2.9291  -30.8609 C   0  0  0  0  0  0
  -23.2795   -3.1023  -29.5323 C   0  0  0  0  0  0
  -25.9153   -4.3842  -22.3945 C   0  0  0  0  0  0
  -23.0748   -4.2503  -26.7672 C   0  0  0  0  0  0
  -22.1157   -4.3950  -27.7206 C   0  0  0  0  0  0
  -22.4699   -4.1802  -29.1515 C   0  0  0  0  0  0
  -20.9621   -6.6927  -32.2512 C   0  0  0  0  0  0
  -20.5840   -7.4226  -33.5358 C   0  0  0  0  0  0
  -18.1734   -4.3126  -25.4904 C   0  0  0  0  0  0
  -22.7882   -4.4275  -25.3476 C   0  0  0  0  0  0
  -23.8288   -4.3515  -24.3202 C   0  0  0  0  0  0
  -20.4952   -4.8615  -25.9949 N   0  0  0  0  0  0
  -16.9198   -4.6496  -25.0988 N   0  0  0  0  0  0
  -24.6762   -3.8501  -22.1602 N   0  0  0  0  0  0
  -26.0945   -4.8248  -23.6705 N   0  0  0  0  0  0
  -19.8363   -4.8966  -28.1892 O   0  0  0  0  0  0
  -22.5751   -3.1678  -22.6471 O   0  0  0  0  0  0
  -26.7881   -4.4600  -21.5364 O   0  0  0  0  0  0
  -21.9707   -5.7197  -32.5213 O   0  0  0  0  0  0
  -24.6534   -1.5958  -31.3085 Cl  0  0  0  0  0  0
  -21.1547   -4.8937  -24.0566 H   0  0  0  0  0  0
  -19.7523   -7.3046  -25.1741 H   0  0  0  0  0  0
  -15.6758   -6.1818  -24.4664 H   0  0  0  0  0  0
  -17.4494   -7.9377  -24.4777 H   0  0  0  0  0  0
  -25.3909   -5.2499  -25.5146 H   0  0  0  0  0  0
  -21.4360   -5.9143  -29.8551 H   0  0  0  0  0  0
  -18.9711   -5.1202  -33.4975 H   0  0  0  0  0  0
  -18.6737   -5.0939  -35.2264 H   0  0  0  0  0  0
  -20.2771   -4.6984  -34.6212 H   0  0  0  0  0  0
  -18.9873   -7.0448  -36.5213 H   0  0  0  0  0  0
  -19.7204   -9.3761  -36.7777 H   0  0  0  0  0  0
  -20.9775  -10.4905  -34.9619 H   0  0  0  0  0  0
  -21.5166   -9.2635  -32.9034 H   0  0  0  0  0  0
  -23.5100   -3.6812  -32.8546 H   0  0  0  0  0  0
  -23.6223   -2.3921  -28.7950 H   0  0  0  0  0  0
  -24.0817   -3.9904  -27.0622 H   0  0  0  0  0  0
  -20.0741   -6.2248  -31.8236 H   0  0  0  0  0  0
  -21.3278   -7.4123  -31.5161 H   0  0  0  0  0  0
  -18.3237   -3.2839  -25.7862 H   0  0  0  0  0  0
  -24.5474   -3.4593  -21.2379 H   0  0  0  0  0  0
  -26.9996   -5.2135  -23.8951 H   0  0  0  0  0  0
  1 27  2  0  0  0
  1 29  1  0  0  0
  1 38  1  0  0  0
  2  4  1  0  0  0
  2  6  2  0  0  0
  2 39  1  0  0  0
  3 22  1  0  0  0
  3 29  1  0  0  0
  3 33  2  0  0  0
  4 26  2  0  0  0
  4 29  1  0  0  0
  5  6  1  0  0  0
  5 30  2  0  0  0
  5 40  1  0  0  0
  6 41  1  0  0  0
  7 28  1  0  0  0
  7 31  1  0  0  0
  7 34  2  0  0  0
  8 28  2  0  0  0
  8 32  1  0  0  0
  8 42  1  0  0  0
  9 10  1  0  0  0
  9 23  2  0  0  0
  9 43  1  0  0  0
 10 17  2  0  0  0
 10 36  1  0  0  0
 11 14  1  0  0  0
 11 44  1  0  0  0
 11 45  1  0  0  0
 11 46  1  0  0  0
 12 13  1  0  0  0
 12 14  2  0  0  0
 12 47  1  0  0  0
 13 15  2  0  0  0
 13 48  1  0  0  0
 14 25  1  0  0  0
 15 16  1  0  0  0
 15 49  1  0  0  0
 16 25  2  0  0  0
 16 50  1  0  0  0
 17 18  1  0  0  0
 17 51  1  0  0  0
 18 19  2  0  0  0
 18 37  1  0  0  0
 19 23  1  0  0  0
 19 52  1  0  0  0
 20 31  1  0  0  0
 20 32  1  0  0  0
 20 35  2  0  0  0
 21 22  2  0  0  0
 21 27  1  0  0  0
 21 53  1  0  0  0
 22 23  1  0  0  0
 24 25  1  0  0  0
 24 36  1  0  0  0
 24 54  1  0  0  0
 24 55  1  0  0  0
 26 30  1  0  0  0
 26 56  1  0  0  0
 27 28  1  0  0  0
 31 57  1  0  0  0
 32 58  1  0  0  0
M  END
$$$$
