7M8Z - minimized_ligand
                    3D
 Structure written by MMmdl.
 58 61  0  0  1  0            999 V2000
  -20.7570   -4.8283  -27.4567 C   0  0  0  0  0  0
  -22.1543   -4.5157  -27.8276 C   0  0  0  0  0  0
  -22.4967   -4.2653  -29.2566 C   0  0  0  0  0  0
  -23.3052   -3.1846  -29.6321 C   0  0  0  0  0  0
  -23.6249   -2.9639  -30.9711 C   0  0  0  0  0  0
  -23.1282   -3.8154  -31.9586 C   0  0  0  0  0  0
  -19.8611   -4.9787  -28.2960 O   0  0  0  0  0  0
  -21.8159   -5.6867  -32.6329 O   0  0  0  0  0  0
  -20.5192   -4.9395  -26.1034 N   0  0  0  0  0  0
  -22.3117   -4.8938  -31.6164 C   0  0  0  0  0  0
  -20.6348   -6.4494  -32.3726 C   0  0  0  0  0  0
  -20.0193   -7.0271  -33.6617 C   0  0  0  0  0  0
  -22.6488   -3.3796  -22.7245 O   0  0  0  0  0  0
  -26.8850   -4.6482  -21.6786 O   0  0  0  0  0  0
  -19.7188   -6.0103  -34.7953 C   0  0  0  0  0  0
  -18.9632   -4.7623  -34.3068 C   0  0  0  0  0  0
  -20.9908   -5.6192  -35.5583 C   0  0  0  0  0  0
  -22.0337   -5.1223  -30.2628 C   0  0  0  0  0  0
  -23.1194   -4.4089  -26.8731 C   0  0  0  0  0  0
  -22.8301   -4.5954  -25.4535 C   0  0  0  0  0  0
  -23.8778   -4.5506  -24.4264 C   0  0  0  0  0  0
  -23.6714   -3.9523  -23.0981 C   0  0  0  0  0  0
  -25.1224   -5.0161  -24.6945 C   0  0  0  0  0  0
  -25.9921   -4.5907  -22.5204 C   0  0  0  0  0  0
  -21.5307   -4.8420  -25.1749 C   0  0  0  0  0  0
  -19.2135   -5.1834  -25.6466 C   0  0  0  0  0  0
  -18.7811   -6.4832  -25.3558 C   0  0  0  0  0  0
  -17.4522   -6.6902  -24.9811 C   0  0  0  0  0  0
  -16.6020   -5.5857  -24.8938 C   0  0  0  0  0  0
  -18.3002   -4.1298  -25.5230 C   0  0  0  0  0  0
  -24.7556   -4.0575  -22.2719 N   0  0  0  0  0  0
  -26.1479   -5.0459  -23.7953 N   0  0  0  0  0  0
  -17.0088   -4.3170  -25.1502 N   0  0  0  0  0  0
  -18.8831   -6.6592  -35.7334 O   0  0  0  0  0  0
  -24.6345   -1.6333  -31.3990 Cl  0  0  0  0  0  0
  -23.6814   -2.5015  -28.8838 H   0  0  0  0  0  0
  -23.3636   -3.6311  -32.9961 H   0  0  0  0  0  0
  -20.8709   -7.2735  -31.6971 H   0  0  0  0  0  0
  -19.8892   -5.8301  -31.8692 H   0  0  0  0  0  0
  -20.6688   -7.8192  -34.0384 H   0  0  0  0  0  0
  -19.0929   -7.5286  -33.3741 H   0  0  0  0  0  0
  -18.6928   -4.1025  -35.1320 H   0  0  0  0  0  0
  -19.5728   -4.1811  -33.6179 H   0  0  0  0  0  0
  -18.0517   -5.0288  -33.7768 H   0  0  0  0  0  0
  -20.7604   -5.0764  -36.4697 H   0  0  0  0  0  0
  -21.5618   -6.5023  -35.8431 H   0  0  0  0  0  0
  -21.6373   -4.9763  -34.9647 H   0  0  0  0  0  0
  -21.4398   -5.9764  -29.9780 H   0  0  0  0  0  0
  -24.1286   -4.1588  -27.1670 H   0  0  0  0  0  0
  -25.4208   -5.4606  -25.6336 H   0  0  0  0  0  0
  -21.1761   -5.0077  -24.1661 H   0  0  0  0  0  0
  -19.4547   -7.3238  -25.4442 H   0  0  0  0  0  0
  -17.0837   -7.6833  -24.7712 H   0  0  0  0  0  0
  -15.5654   -5.7122  -24.6207 H   0  0  0  0  0  0
  -18.5953   -3.1148  -25.7473 H   0  0  0  0  0  0
  -24.6366   -3.6652  -21.3491 H   0  0  0  0  0  0
  -27.0474   -5.4401  -24.0298 H   0  0  0  0  0  0
  -19.3805   -7.3737  -36.1384 H   0  0  0  0  0  0
  1  2  1  0  0  0
  1  7  2  0  0  0
  1  9  1  0  0  0
  2  3  1  0  0  0
  2 19  2  0  0  0
  3  4  1  0  0  0
  3 18  2  0  0  0
  4  5  2  0  0  0
  4 36  1  0  0  0
  5  6  1  0  0  0
  5 35  1  0  0  0
  6 10  2  0  0  0
  6 37  1  0  0  0
  8 10  1  0  0  0
  8 11  1  0  0  0
  9 25  1  0  0  0
  9 26  1  0  0  0
 10 18  1  0  0  0
 11 12  1  0  0  0
 11 38  1  0  0  0
 11 39  1  0  0  0
 12 15  1  0  0  0
 12 40  1  0  0  0
 12 41  1  0  0  0
 13 22  2  0  0  0
 14 24  2  0  0  0
 15 16  1  0  0  0
 15 17  1  0  0  0
 15 34  1  0  0  0
 16 42  1  0  0  0
 16 43  1  0  0  0
 16 44  1  0  0  0
 17 45  1  0  0  0
 17 46  1  0  0  0
 17 47  1  0  0  0
 18 48  1  0  0  0
 19 20  1  0  0  0
 19 49  1  0  0  0
 20 21  1  0  0  0
 20 25  2  0  0  0
 21 22  1  0  0  0
 21 23  2  0  0  0
 22 31  1  0  0  0
 23 32  1  0  0  0
 23 50  1  0  0  0
 24 31  1  0  0  0
 24 32  1  0  0  0
 25 51  1  0  0  0
 26 27  1  0  0  0
 26 30  2  0  0  0
 27 28  2  0  0  0
 27 52  1  0  0  0
 28 29  1  0  0  0
 28 53  1  0  0  0
 29 33  2  0  0  0
 29 54  1  0  0  0
 30 33  1  0  0  0
 30 55  1  0  0  0
 31 56  1  0  0  0
 32 57  1  0  0  0
 34 58  1  0  0  0
M  END
$$$$
