7M90 - minimized_ligand
                    3D
 Structure written by MMmdl.
 60 64  0  0  1  0            999 V2000
  -20.6542   -4.9446  -27.5534 C   0  0  0  0  0  0
  -19.1102   -5.3457  -25.7483 C   0  0  0  0  0  0
  -18.2121   -4.2909  -25.5591 C   0  0  0  0  0  0
  -16.5256   -5.7532  -24.9143 C   0  0  0  0  0  0
  -17.3616   -6.8603  -25.0676 C   0  0  0  0  0  0
  -18.6777   -6.6511  -25.4862 C   0  0  0  0  0  0
  -21.4136   -4.9714  -25.2630 C   0  0  0  0  0  0
  -22.7058   -4.6750  -25.5249 C   0  0  0  0  0  0
  -23.7419   -4.5930  -24.4862 C   0  0  0  0  0  0
  -25.0208   -4.9736  -24.7466 C   0  0  0  0  0  0
  -25.8446   -4.5079  -22.6207 C   0  0  0  0  0  0
  -22.9964   -4.4542  -26.9399 C   0  0  0  0  0  0
  -22.0416   -4.5815  -27.8990 C   0  0  0  0  0  0
  -22.3758   -4.2636  -29.3073 C   0  0  0  0  0  0
  -22.8693   -2.9979  -29.6362 C   0  0  0  0  0  0
  -23.1746   -2.6762  -30.9546 C   0  0  0  0  0  0
  -19.8651   -8.0408  -35.6356 C   0  0  0  0  0  0
  -20.1927   -5.8024  -34.7524 C   0  0  0  0  0  0
  -18.7594   -5.4174  -35.1648 C   0  0  0  0  0  0
  -18.6602   -7.5372  -36.4690 C   0  0  0  0  0  0
  -23.4909   -4.0302  -23.1475 C   0  0  0  0  0  0
  -23.0066   -3.6254  -31.9604 C   0  0  0  0  0  0
  -22.5259   -4.9011  -31.6617 C   0  0  0  0  0  0
  -21.8176   -7.0635  -32.5101 C   0  0  0  0  0  0
  -21.4601   -7.7215  -33.8598 C   0  0  0  0  0  0
  -22.2131   -5.2106  -30.3270 C   0  0  0  0  0  0
  -20.4130   -5.0881  -26.2028 N   0  0  0  0  0  0
  -16.9333   -4.4796  -25.1459 N   0  0  0  0  0  0
  -24.5844   -4.0653  -22.3263 N   0  0  0  0  0  0
  -26.0887   -4.9496  -23.8473 N   0  5  0  0  0  0
  -20.2143   -7.2369  -34.4660 N   0  0  0  0  0  0
  -18.2840   -6.2561  -36.2730 N   0  0  0  0  0  0
  -19.7810   -5.0966  -28.4143 O   0  0  0  0  0  0
  -22.4300   -3.5402  -22.7665 O   0  0  0  0  0  0
  -26.6445   -4.4415  -21.6900 O   0  0  0  0  0  0
  -22.3869   -5.7726  -32.7235 O   0  0  0  0  0  0
  -18.1375   -8.2771  -37.2986 O   0  0  0  0  0  0
  -23.7737   -1.1057  -31.3296 Cl  0  0  0  0  0  0
  -18.5152   -3.2716  -25.7504 H   0  0  0  0  0  0
  -15.4998   -5.8807  -24.6043 H   0  0  0  0  0  0
  -16.9931   -7.8567  -24.8739 H   0  0  0  0  0  0
  -19.3433   -7.4913  -25.6194 H   0  0  0  0  0  0
  -21.0590   -5.1607  -24.2586 H   0  0  0  0  0  0
  -25.2626   -5.3689  -25.7228 H   0  0  0  0  0  0
  -23.9916   -4.1446  -27.2267 H   0  0  0  0  0  0
  -23.0086   -2.2540  -28.8653 H   0  0  0  0  0  0
  -19.6431   -9.0673  -35.3385 H   0  0  0  0  0  0
  -20.7030   -8.0920  -36.3336 H   0  0  0  0  0  0
  -20.9141   -5.5495  -35.5309 H   0  0  0  0  0  0
  -20.4401   -5.2226  -33.8676 H   0  0  0  0  0  0
  -18.0789   -5.5400  -34.3211 H   0  0  0  0  0  0
  -18.7121   -4.3712  -35.4657 H   0  0  0  0  0  0
  -23.2446   -3.3689  -32.9817 H   0  0  0  0  0  0
  -20.9226   -7.0231  -31.8861 H   0  0  0  0  0  0
  -22.5570   -7.6738  -31.9903 H   0  0  0  0  0  0
  -22.2803   -7.6070  -34.5680 H   0  0  0  0  0  0
  -21.3499   -8.7929  -33.6851 H   0  0  0  0  0  0
  -21.8429   -6.1887  -30.0599 H   0  0  0  0  0  0
  -24.4603   -3.6928  -21.3979 H   0  0  0  0  0  0
  -17.5106   -5.9109  -36.8263 H   0  0  0  0  0  0
  1 13  1  0  0  0
  1 27  1  0  0  0
  1 33  2  0  0  0
  2  3  1  0  0  0
  2  6  2  0  0  0
  2 27  1  0  0  0
  3 28  2  0  0  0
  3 39  1  0  0  0
  4  5  2  0  0  0
  4 28  1  0  0  0
  4 40  1  0  0  0
  5  6  1  0  0  0
  5 41  1  0  0  0
  6 42  1  0  0  0
  7  8  2  0  0  0
  7 27  1  0  0  0
  7 43  1  0  0  0
  8  9  1  0  0  0
  8 12  1  0  0  0
  9 10  2  0  0  0
  9 21  1  0  0  0
 10 30  1  0  0  0
 10 44  1  0  0  0
 11 29  1  0  0  0
 11 30  1  0  0  0
 11 35  2  0  0  0
 12 13  2  0  0  0
 12 45  1  0  0  0
 13 14  1  0  0  0
 14 15  1  0  0  0
 14 26  2  0  0  0
 15 16  2  0  0  0
 15 46  1  0  0  0
 16 22  1  0  0  0
 16 38  1  0  0  0
 17 20  1  0  0  0
 17 31  1  0  0  0
 17 47  1  0  0  0
 17 48  1  0  0  0
 18 19  1  0  0  0
 18 31  1  0  0  0
 18 49  1  0  0  0
 18 50  1  0  0  0
 19 32  1  0  0  0
 19 51  1  0  0  0
 19 52  1  0  0  0
 20 32  1  0  0  0
 20 37  2  0  0  0
 21 29  1  0  0  0
 21 34  2  0  0  0
 22 23  2  0  0  0
 22 53  1  0  0  0
 23 26  1  0  0  0
 23 36  1  0  0  0
 24 25  1  0  0  0
 24 36  1  0  0  0
 24 54  1  0  0  0
 24 55  1  0  0  0
 25 31  1  0  0  0
 25 56  1  0  0  0
 25 57  1  0  0  0
 26 58  1  0  0  0
 29 59  1  0  0  0
 32 60  1  0  0  0
M  CHG  1  30  -1
M  END
$$$$
