7M91 - minimized_ligand
                    3D
 Structure written by MMmdl.
 51 54  0  0  1  0            999 V2000
  -21.4768   -4.8457  -25.2513 C   0  0  0  0  0  0
  -17.4089   -6.6649  -24.9922 C   0  0  0  0  0  0
  -16.5740   -5.5554  -24.8553 C   0  0  0  0  0  0
  -18.2602   -4.1039  -25.5235 C   0  0  0  0  0  0
  -20.6802   -4.7869  -27.5231 C   0  0  0  0  0  0
  -19.1577   -5.1633  -25.6971 C   0  0  0  0  0  0
  -23.6044   -4.0159  -23.1582 C   0  0  0  0  0  0
  -22.0785   -4.4932  -27.9038 C   0  0  0  0  0  0
  -22.4030   -4.2178  -29.3332 C   0  0  0  0  0  0
  -21.9509   -5.0598  -30.3620 C   0  0  0  0  0  0
  -25.0785   -5.0097  -24.7760 C   0  0  0  0  0  0
  -20.4784   -6.0841  -32.7406 C   0  0  0  0  0  0
  -23.1967   -3.1182  -29.6821 C   0  0  0  0  0  0
  -19.5544   -5.0680  -33.4338 C   0  0  0  0  0  0
  -19.6576   -5.0395  -34.9634 C   0  0  0  0  0  0
  -23.0575   -3.7105  -32.0182 C   0  0  0  0  0  0
  -25.9302   -4.6321  -22.5847 C   0  0  0  0  0  0
  -23.0543   -4.4089  -26.9553 C   0  0  0  0  0  0
  -22.2499   -4.8028  -31.7062 C   0  0  0  0  0  0
  -23.5246   -2.8665  -31.0119 C   0  0  0  0  0  0
  -18.7238   -6.4634  -25.4151 C   0  0  0  0  0  0
  -22.7770   -4.6065  -25.5339 C   0  0  0  0  0  0
  -23.8243   -4.5734  -24.5027 C   0  0  0  0  0  0
  -18.9423   -4.0234  -35.4409 F   0  0  0  0  0  0
  -19.1817   -6.1610  -35.5029 F   0  0  0  0  0  0
  -20.9127   -4.8873  -35.3839 F   0  0  0  0  0  0
  -20.4576   -4.9216  -26.1714 N   0  0  0  0  0  0
  -16.9823   -4.2858  -25.1062 N   0  0  0  0  0  0
  -24.6853   -4.1253  -22.3290 N   0  0  0  0  0  0
  -26.1005   -5.0476  -23.8710 N   0  0  0  0  0  0
  -19.7746   -4.9001  -28.3567 O   0  0  0  0  0  0
  -22.5739   -3.4668  -22.7717 O   0  0  0  0  0  0
  -26.8142   -4.6997  -21.7347 O   0  0  0  0  0  0
  -21.8304   -5.6141  -32.7419 O   0  0  0  0  0  0
  -24.5119   -1.5102  -31.4054 Cl  0  0  0  0  0  0
  -21.1265   -5.0164  -24.2432 H   0  0  0  0  0  0
  -17.0407   -7.6586  -24.7843 H   0  0  0  0  0  0
  -15.5473   -5.6777  -24.5477 H   0  0  0  0  0  0
  -18.5585   -3.0876  -25.7349 H   0  0  0  0  0  0
  -21.3779   -5.9350  -30.0998 H   0  0  0  0  0  0
  -25.3911   -5.4209  -25.7252 H   0  0  0  0  0  0
  -20.1006   -6.3086  -31.7450 H   0  0  0  0  0  0
  -20.4517   -7.0323  -33.2780 H   0  0  0  0  0  0
  -23.5584   -2.4455  -28.9178 H   0  0  0  0  0  0
  -18.5191   -5.2734  -33.1662 H   0  0  0  0  0  0
  -19.7733   -4.0767  -33.0495 H   0  0  0  0  0  0
  -23.3093   -3.5103  -33.0481 H   0  0  0  0  0  0
  -24.0633   -4.1661  -27.2568 H   0  0  0  0  0  0
  -19.3845   -7.3091  -25.5412 H   0  0  0  0  0  0
  -24.5561   -3.7577  -21.3977 H   0  0  0  0  0  0
  -27.0098   -5.4166  -24.1099 H   0  0  0  0  0  0
  1 22  2  0  0  0
  1 27  1  0  0  0
  1 36  1  0  0  0
  2  3  1  0  0  0
  2 21  2  0  0  0
  2 37  1  0  0  0
  3 28  2  0  0  0
  3 38  1  0  0  0
  4  6  2  0  0  0
  4 28  1  0  0  0
  4 39  1  0  0  0
  5  8  1  0  0  0
  5 27  1  0  0  0
  5 31  2  0  0  0
  6 21  1  0  0  0
  6 27  1  0  0  0
  7 23  1  0  0  0
  7 29  1  0  0  0
  7 32  2  0  0  0
  8  9  1  0  0  0
  8 18  2  0  0  0
  9 10  1  0  0  0
  9 13  2  0  0  0
 10 19  2  0  0  0
 10 40  1  0  0  0
 11 23  2  0  0  0
 11 30  1  0  0  0
 11 41  1  0  0  0
 12 14  1  0  0  0
 12 34  1  0  0  0
 12 42  1  0  0  0
 12 43  1  0  0  0
 13 20  1  0  0  0
 13 44  1  0  0  0
 14 15  1  0  0  0
 14 45  1  0  0  0
 14 46  1  0  0  0
 15 24  1  0  0  0
 15 25  1  0  0  0
 15 26  1  0  0  0
 16 19  1  0  0  0
 16 20  2  0  0  0
 16 47  1  0  0  0
 17 29  1  0  0  0
 17 30  1  0  0  0
 17 33  2  0  0  0
 18 22  1  0  0  0
 18 48  1  0  0  0
 19 34  1  0  0  0
 20 35  1  0  0  0
 21 49  1  0  0  0
 22 23  1  0  0  0
 29 50  1  0  0  0
 30 51  1  0  0  0
M  END
$$$$
