5R7Y_ligand
                    3D
 Structure written by MMmdl.
 26 26  0  0  1  0            999 V2000
  -22.8269   -2.1882  -31.4458 C   0  0  0  0  0  0
  -22.8796   -4.8492  -30.5985 C   0  0  0  0  0  0
  -28.0157   -4.0262  -26.8063 C   0  0  0  0  0  0
  -26.8140   -5.3864  -26.3267 S   0  0  0  0  0  0
  -26.8986   -5.5988  -24.8786 O   0  0  0  0  0  0
  -27.0022   -6.5066  -27.2527 O   0  0  0  0  0  0
  -25.2415   -4.6797  -26.6555 N   0  0  0  0  0  0
  -24.8609   -4.5492  -28.0701 C   0  0  0  0  0  0
  -23.3961   -4.1338  -28.2340 C   0  0  0  0  0  0
  -23.0887   -3.8126  -29.6843 C   0  0  0  0  0  0
  -23.0613   -2.4817  -30.1077 C   0  0  0  0  0  0
  -22.6006   -3.2240  -32.3479 C   0  0  0  0  0  0
  -22.6284   -4.5525  -31.9346 C   0  0  0  0  0  0
  -22.8137   -1.1610  -31.7785 H   0  0  0  0  0  0
  -22.9112   -5.8806  -30.2771 H   0  0  0  0  0  0
  -27.8932   -3.7903  -27.8618 H   0  0  0  0  0  0
  -29.0216   -4.3945  -26.6244 H   0  0  0  0  0  0
  -27.8178   -3.1457  -26.2007 H   0  0  0  0  0  0
  -24.5000   -5.0580  -26.0601 H   0  0  0  0  0  0
  -25.5120   -3.8013  -28.5245 H   0  0  0  0  0  0
  -25.0438   -5.4933  -28.5850 H   0  0  0  0  0  0
  -22.7335   -4.9255  -27.8809 H   0  0  0  0  0  0
  -23.1685   -3.2680  -27.6097 H   0  0  0  0  0  0
  -23.2345   -1.6768  -29.4092 H   0  0  0  0  0  0
  -22.3959   -2.9920  -33.3802 H   0  0  0  0  0  0
  -22.4543   -5.3446  -32.6473 H   0  0  0  0  0  0
  1 11  1  0  0  0
  1 12  2  0  0  0
  1 14  1  0  0  0
  2 10  1  0  0  0
  2 13  2  0  0  0
  2 15  1  0  0  0
  3  4  1  0  0  0
  3 16  1  0  0  0
  3 17  1  0  0  0
  3 18  1  0  0  0
  4  5  2  0  0  0
  4  6  2  0  0  0
  4  7  1  0  0  0
  7  8  1  0  0  0
  7 19  1  0  0  0
  8  9  1  0  0  0
  8 20  1  0  0  0
  8 21  1  0  0  0
  9 10  1  0  0  0
  9 22  1  0  0  0
  9 23  1  0  0  0
 10 11  2  0  0  0
 11 24  1  0  0  0
 12 13  1  0  0  0
 12 25  1  0  0  0
 13 26  1  0  0  0
M  END
> <s_m_entry_id>
1

> <s_m_entry_name>
5R7Y_ligand.1

> <s_m_Source_Path>
C:\Users\ifige\Documents\GitHub\WATERS\data\molecules

> <s_m_Source_File>
5R7Y_ligand.sdf

> <i_m_Source_File_Index>
1

> <s_user_Name>
5R7Y_ligand

$$$$
