5R7Z_ligand
                    3D
 Structure written by MMmdl.
 29 30  0  0  1  0            999 V2000
  -19.0455   -7.0102  -33.6029 N   0  0  0  0  0  0
  -20.3437   -4.8647  -33.6708 C   0  0  0  0  0  0
  -21.3429   -5.1466  -32.5529 C   0  0  0  0  0  0
  -21.7126   -6.3560  -31.9834 C   0  0  0  0  0  0
  -22.8152   -4.8138  -30.7864 C   0  0  0  0  0  0
  -22.0979   -4.1530  -31.8307 C   0  0  0  0  0  0
  -22.9615   -2.0595  -30.9869 C   0  0  0  0  0  0
  -18.2977   -9.0886  -32.5694 C   0  0  0  0  0  0
  -23.6118   -2.7292  -29.9546 C   0  0  0  0  0  0
  -23.5769   -4.1195  -29.8412 C   0  0  0  0  0  0
  -19.1812   -8.3453  -33.5640 C   0  0  0  0  0  0
  -19.8151   -6.0931  -34.4441 C   0  0  0  0  0  0
  -22.2233   -2.7576  -31.9399 C   0  0  0  0  0  0
  -23.0462   -0.7116  -31.0656 F   0  0  0  0  0  0
  -22.5755   -6.1590  -30.9394 N   0  0  0  0  0  0
  -19.9715   -8.9751  -34.2659 O   0  0  0  0  0  0
  -18.3579   -6.5813  -32.9957 H   0  0  0  0  0  0
  -19.4885   -4.3253  -33.2599 H   0  0  0  0  0  0
  -20.7781   -4.1701  -34.3855 H   0  0  0  0  0  0
  -21.4025   -7.3643  -32.2115 H   0  0  0  0  0  0
  -18.9107   -9.5220  -31.7800 H   0  0  0  0  0  0
  -17.7689   -9.8984  -33.0703 H   0  0  0  0  0  0
  -17.5613   -8.4301  -32.1067 H   0  0  0  0  0  0
  -24.1812   -2.1595  -29.2362 H   0  0  0  0  0  0
  -24.1082   -4.6256  -29.0489 H   0  0  0  0  0  0
  -20.6456   -6.5954  -34.9445 H   0  0  0  0  0  0
  -19.1575   -5.7550  -35.2460 H   0  0  0  0  0  0
  -21.7184   -2.2214  -32.7280 H   0  0  0  0  0  0
  -22.9272   -6.9198  -30.3745 H   0  0  0  0  0  0
  1 11  1  0  0  0
  1 12  1  0  0  0
  1 17  1  0  0  0
  2  3  1  0  0  0
  2 12  1  0  0  0
  2 18  1  0  0  0
  2 19  1  0  0  0
  3  4  2  0  0  0
  3  6  1  0  0  0
  4 15  1  0  0  0
  4 20  1  0  0  0
  5  6  2  0  0  0
  5 10  1  0  0  0
  5 15  1  0  0  0
  6 13  1  0  0  0
  7  9  1  0  0  0
  7 13  2  0  0  0
  7 14  1  0  0  0
  8 11  1  0  0  0
  8 21  1  0  0  0
  8 22  1  0  0  0
  8 23  1  0  0  0
  9 10  2  0  0  0
  9 24  1  0  0  0
 10 25  1  0  0  0
 11 16  2  0  0  0
 12 26  1  0  0  0
 12 27  1  0  0  0
 13 28  1  0  0  0
 15 29  1  0  0  0
M  END
> <s_m_entry_id>
2

> <s_m_entry_name>
5R7Z_ligand.1

> <s_m_Source_Path>
C:\Users\ifige\Documents\GitHub\WATERS\data\molecules

> <s_m_Source_File>
5R7Z_ligand.sdf

> <i_m_Source_File_Index>
1

> <s_user_Name>
5R7Z_ligand

$$$$
