5R80_ligand
                    3D
 Structure written by MMmdl.
 23 23  0  0  1  0            999 V2000
  -21.3366   -4.3261  -33.1008 C   0  0  0  0  0  0
  -25.4556   -2.4543  -31.3894 C   0  0  0  0  0  0
  -23.2176   -3.1838  -31.9146 C   0  0  0  0  0  0
  -22.3888   -4.3995  -32.1822 C   0  0  0  0  0  0
  -22.6255   -5.6073  -31.5140 C   0  0  0  0  0  0
  -21.8353   -6.7244  -31.7732 C   0  0  0  0  0  0
  -20.7947   -6.6375  -32.6968 C   0  0  0  0  0  0
  -20.5412   -5.4373  -33.3597 C   0  0  0  0  0  0
  -18.8930   -8.3306  -31.5293 N   0  0  0  0  0  0
  -24.5062   -3.4865  -31.6205 O   0  0  0  0  0  0
  -22.8011   -2.0316  -32.0599 O   0  0  0  0  0  0
  -18.8071   -7.7234  -34.0560 O   0  0  0  0  0  0
  -20.6851   -9.2118  -33.1820 O   0  0  0  0  0  0
  -19.7773   -8.0743  -33.0146 S   0  0  0  0  0  0
  -21.1424   -3.4149  -33.6432 H   0  0  0  0  0  0
  -26.4411   -2.8839  -31.2193 H   0  0  0  0  0  0
  -25.1820   -1.8688  -30.5111 H   0  0  0  0  0  0
  -25.5279   -1.7829  -32.2448 H   0  0  0  0  0  0
  -23.4151   -5.6913  -30.7864 H   0  0  0  0  0  0
  -22.0283   -7.6527  -31.2549 H   0  0  0  0  0  0
  -19.7370   -5.3581  -34.0761 H   0  0  0  0  0  0
  -18.0102   -7.8132  -31.4795 H   0  0  0  0  0  0
  -18.8035   -9.3098  -31.2458 H   0  0  0  0  0  0
  1  4  1  0  0  0
  1  8  2  0  0  0
  1 15  1  0  0  0
  2 10  1  0  0  0
  2 16  1  0  0  0
  2 17  1  0  0  0
  2 18  1  0  0  0
  3  4  1  0  0  0
  3 10  1  0  0  0
  3 11  2  0  0  0
  4  5  2  0  0  0
  5  6  1  0  0  0
  5 19  1  0  0  0
  6  7  2  0  0  0
  6 20  1  0  0  0
  7  8  1  0  0  0
  7 14  1  0  0  0
  8 21  1  0  0  0
  9 14  1  0  0  0
  9 22  1  0  0  0
  9 23  1  0  0  0
 12 14  2  0  0  0
 13 14  2  0  0  0
M  END
> <s_m_entry_id>
3

> <s_m_entry_name>
5R80_ligand.1

> <s_m_Source_Path>
C:\Users\ifige\Documents\GitHub\WATERS\data\molecules

> <s_m_Source_File>
5R80_ligand.sdf

> <i_m_Source_File_Index>
1

> <s_user_Name>
5R80_ligand

$$$$
