5R81_ligand
                    3D
 Structure written by MMmdl.
 29 30  0  0  1  0            999 V2000
  -21.7889   -6.1407  -31.5857 C   0  0  0  0  0  0
  -23.6923   -5.7749  -29.3043 C   0  0  0  0  0  0
  -23.9866   -3.4789  -30.0129 C   0  0  0  0  0  0
  -23.2079   -2.2670  -30.5275 C   0  0  0  0  0  0
  -22.8129   -2.4603  -31.9952 C   0  0  0  0  0  0
  -22.1416   -3.8146  -32.2022 C   0  0  0  0  0  0
  -21.2402   -3.9946  -33.2555 C   0  0  0  0  0  0
  -20.6100   -5.2154  -33.4734 C   0  0  0  0  0  0
  -20.8960   -6.2998  -32.6473 C   0  0  0  0  0  0
  -22.4183   -4.9080  -31.3465 C   0  0  0  0  0  0
  -23.3032   -4.7523  -30.2743 N   0  0  0  0  0  0
  -20.0318   -8.0415  -34.6876 N   0  0  0  0  0  0
  -21.0262   -8.9212  -32.4522 O   0  0  0  0  0  0
  -18.7421   -7.7922  -32.4446 O   0  0  0  0  0  0
  -20.1156   -7.8842  -32.9462 S   0  0  0  0  0  0
  -21.9845   -6.9870  -30.9442 H   0  0  0  0  0  0
  -23.8541   -6.7336  -29.7962 H   0  0  0  0  0  0
  -22.8953   -5.9069  -28.5724 H   0  0  0  0  0  0
  -24.6114   -5.5300  -28.7688 H   0  0  0  0  0  0
  -24.9221   -3.5186  -30.5562 H   0  0  0  0  0  0
  -24.2205   -3.3466  -28.9546 H   0  0  0  0  0  0
  -22.3270   -2.1223  -29.9080 H   0  0  0  0  0  0
  -23.8063   -1.3624  -30.4161 H   0  0  0  0  0  0
  -22.1548   -1.6486  -32.3061 H   0  0  0  0  0  0
  -23.7023   -2.4110  -32.6226 H   0  0  0  0  0  0
  -21.0224   -3.1694  -33.9183 H   0  0  0  0  0  0
  -19.9154   -5.3171  -34.2953 H   0  0  0  0  0  0
  -20.5446   -8.8388  -35.0715 H   0  0  0  0  0  0
  -19.0906   -7.9412  -35.0764 H   0  0  0  0  0  0
  1  9  1  0  0  0
  1 10  2  0  0  0
  1 16  1  0  0  0
  2 11  1  0  0  0
  2 17  1  0  0  0
  2 18  1  0  0  0
  2 19  1  0  0  0
  3  4  1  0  0  0
  3 11  1  0  0  0
  3 20  1  0  0  0
  3 21  1  0  0  0
  4  5  1  0  0  0
  4 22  1  0  0  0
  4 23  1  0  0  0
  5  6  1  0  0  0
  5 24  1  0  0  0
  5 25  1  0  0  0
  6  7  2  0  0  0
  6 10  1  0  0  0
  7  8  1  0  0  0
  7 26  1  0  0  0
  8  9  2  0  0  0
  8 27  1  0  0  0
  9 15  1  0  0  0
 10 11  1  0  0  0
 12 15  1  0  0  0
 12 28  1  0  0  0
 12 29  1  0  0  0
 13 15  2  0  0  0
 14 15  2  0  0  0
M  END
> <s_m_entry_id>
4

> <s_m_entry_name>
5R81_ligand.1

> <s_m_Source_Path>
C:\Users\ifige\Documents\GitHub\WATERS\data\molecules

> <s_m_Source_File>
5R81_ligand.sdf

> <i_m_Source_File_Index>
1

> <s_user_Name>
5R81_ligand

$$$$
