5R82_ligand
                    3D
 Structure written by MMmdl.
 20 20  0  0  1  0            999 V2000
  -22.9093   -3.5361  -31.7913 C   0  0  0  0  0  0
  -25.4427   -8.6370  -29.7167 C   0  0  0  0  0  0
  -24.9246   -7.2275  -29.4155 C   0  0  0  0  0  0
  -23.9689   -5.2362  -30.5903 C   0  0  0  0  0  0
  -24.2481   -4.3562  -29.5337 C   0  0  0  0  0  0
  -23.8591   -3.0224  -29.6473 C   0  0  0  0  0  0
  -23.1952   -2.5946  -30.7986 C   0  0  0  0  0  0
  -22.8320   -1.2005  -30.9656 C   0  0  0  0  0  0
  -24.3917   -6.5718  -30.6020 N   0  0  0  0  0  0
  -22.5376   -0.0915  -31.0941 N   0  0  0  0  0  0
  -23.2931   -4.8348  -31.6983 N   0  0  0  0  0  0
  -22.3900   -3.2587  -32.6987 H   0  0  0  0  0  0
  -25.8198   -9.1113  -28.8102 H   0  0  0  0  0  0
  -26.2572   -8.6134  -30.4426 H   0  0  0  0  0  0
  -24.6519   -9.2730  -30.1177 H   0  0  0  0  0  0
  -24.1448   -7.2637  -28.6526 H   0  0  0  0  0  0
  -25.7288   -6.6270  -28.9890 H   0  0  0  0  0  0
  -24.7781   -4.6751  -28.6491 H   0  0  0  0  0  0
  -24.0909   -2.3337  -28.8482 H   0  0  0  0  0  0
  -23.9160   -7.1629  -31.2712 H   0  0  0  0  0  0
  1  7  1  0  0  0
  1 11  2  0  0  0
  1 12  1  0  0  0
  2  3  1  0  0  0
  2 13  1  0  0  0
  2 14  1  0  0  0
  2 15  1  0  0  0
  3  9  1  0  0  0
  3 16  1  0  0  0
  3 17  1  0  0  0
  4  5  2  0  0  0
  4  9  1  0  0  0
  4 11  1  0  0  0
  5  6  1  0  0  0
  5 18  1  0  0  0
  6  7  2  0  0  0
  6 19  1  0  0  0
  7  8  1  0  0  0
  8 10  3  0  0  0
  9 20  1  0  0  0
M  END
> <s_m_entry_id>
5

> <s_m_entry_name>
5R82_ligand.1

> <s_m_Source_Path>
C:\Users\ifige\Documents\GitHub\WATERS\data\molecules

> <s_m_Source_File>
5R82_ligand.sdf

> <i_m_Source_File_Index>
1

> <s_user_Name>
5R82_ligand

$$$$
