5R83_ligand
                    3D
 Structure written by MMmdl.
 27 28  0  0  1  0            999 V2000
  -20.4138   -4.8302  -26.6198 N   0  0  0  0  0  0
  -22.8771   -3.4817  -32.1663 C   0  0  0  0  0  0
  -22.6723   -4.8084  -31.7985 C   0  0  0  0  0  0
  -22.3864   -5.1144  -30.4722 C   0  0  0  0  0  0
  -19.1476   -5.1021  -26.1045 C   0  0  0  0  0  0
  -18.7751   -6.4131  -25.7978 C   0  0  0  0  0  0
  -16.5767   -5.5959  -25.2926 C   0  0  0  0  0  0
  -21.8971   -4.3530  -28.2249 N   0  0  0  0  0  0
  -20.6171   -4.6540  -27.9373 C   0  0  0  0  0  0
  -19.7267   -4.7496  -28.7890 O   0  0  0  0  0  0
  -22.3080   -4.0830  -29.5307 C   0  0  0  0  0  0
  -18.2041   -4.0802  -25.9576 C   0  0  0  0  0  0
  -22.5616   -2.7616  -29.8937 C   0  0  0  0  0  0
  -22.8311   -2.4589  -31.2237 C   0  0  0  0  0  0
  -17.4648   -6.6678  -25.3947 C   0  0  0  0  0  0
  -16.9309   -4.3116  -25.5530 N   0  0  0  0  0  0
  -21.1938   -4.8028  -25.9778 H   0  0  0  0  0  0
  -23.0707   -3.2307  -33.1936 H   0  0  0  0  0  0
  -22.7034   -5.5920  -32.5394 H   0  0  0  0  0  0
  -22.1828   -6.1365  -30.1878 H   0  0  0  0  0  0
  -19.4728   -7.2300  -25.9124 H   0  0  0  0  0  0
  -15.5488   -5.7653  -25.0161 H   0  0  0  0  0  0
  -22.5585   -4.2075  -27.4764 H   0  0  0  0  0  0
  -18.4555   -3.0594  -26.2042 H   0  0  0  0  0  0
  -22.5142   -1.9708  -29.1623 H   0  0  0  0  0  0
  -23.0040   -1.4365  -31.5243 H   0  0  0  0  0  0
  -17.1376   -7.6749  -25.1842 H   0  0  0  0  0  0
  1  5  1  0  0  0
  1  9  1  0  0  0
  1 17  1  0  0  0
  2  3  1  0  0  0
  2 14  2  0  0  0
  2 18  1  0  0  0
  3  4  2  0  0  0
  3 19  1  0  0  0
  4 11  1  0  0  0
  4 20  1  0  0  0
  5  6  1  0  0  0
  5 12  2  0  0  0
  6 15  2  0  0  0
  6 21  1  0  0  0
  7 15  1  0  0  0
  7 16  2  0  0  0
  7 22  1  0  0  0
  8  9  1  0  0  0
  8 11  1  0  0  0
  8 23  1  0  0  0
  9 10  2  0  0  0
 11 13  2  0  0  0
 12 16  1  0  0  0
 12 24  1  0  0  0
 13 14  1  0  0  0
 13 25  1  0  0  0
 14 26  1  0  0  0
 15 27  1  0  0  0
M  END
> <s_m_entry_id>
6

> <s_m_entry_name>
5R83_ligand.1

> <s_m_Source_Path>
C:\Users\ifige\Documents\GitHub\WATERS\data\molecules

> <s_m_Source_File>
5R83_ligand.sdf

> <i_m_Source_File_Index>
1

> <s_user_Name>
5R83_ligand

$$$$
