5R84_ligand
                    3D
 Structure written by MMmdl.
 34 35  0  0  1  0            999 V2000
  -17.4451   -4.1526  -25.9715 N   0  0  0  0  0  0
  -24.7504   -3.8257  -31.6977 C   0  0  0  0  0  0
  -24.7278   -2.3553  -31.2464 C   0  0  0  0  0  0
  -23.3309   -1.9439  -30.7476 C   0  0  0  0  0  0
  -22.8193   -2.8907  -29.6405 C   0  0  0  0  0  0
  -19.3954   -5.4358  -26.6116 C   0  0  0  0  0  0
  -17.5140   -6.5381  -25.5844 C   0  0  0  0  0  0
  -20.0675   -4.8109  -29.2747 O   0  0  0  0  0  0
  -20.9290   -5.1829  -28.4755 C   0  0  0  0  0  0
  -20.6669   -5.4976  -27.1901 N   0  0  0  0  0  0
  -18.6896   -4.2304  -26.5072 C   0  0  0  0  0  0
  -16.8724   -5.3004  -25.5319 C   0  0  0  0  0  0
  -18.8009   -6.6008  -26.1196 C   0  0  0  0  0  0
  -22.3877   -5.3487  -28.9370 C   0  0  0  0  0  0
  -22.8489   -4.3824  -30.0643 C   0  0  0  0  0  0
  -24.2570   -4.7667  -30.5810 C   0  0  0  0  0  0
  -24.1115   -3.9451  -32.5710 H   0  0  0  0  0  0
  -25.7552   -4.1066  -32.0149 H   0  0  0  0  0  0
  -25.4549   -2.2151  -30.4465 H   0  0  0  0  0  0
  -25.0456   -1.7064  -32.0620 H   0  0  0  0  0  0
  -23.3510   -0.9172  -30.3799 H   0  0  0  0  0  0
  -22.6356   -1.9529  -31.5875 H   0  0  0  0  0  0
  -23.4281   -2.7561  -28.7455 H   0  0  0  0  0  0
  -21.8085   -2.6032  -29.3596 H   0  0  0  0  0  0
  -17.0194   -7.4302  -25.2287 H   0  0  0  0  0  0
  -21.4040   -5.8945  -26.6261 H   0  0  0  0  0  0
  -19.1145   -3.3045  -26.8621 H   0  0  0  0  0  0
  -15.8683   -5.2222  -25.1468 H   0  0  0  0  0  0
  -19.3115   -7.5514  -26.1775 H   0  0  0  0  0  0
  -23.0570   -5.2557  -28.0796 H   0  0  0  0  0  0
  -22.4873   -6.3774  -29.2870 H   0  0  0  0  0  0
  -22.1673   -4.5026  -30.9088 H   0  0  0  0  0  0
  -24.2605   -5.7938  -30.9465 H   0  0  0  0  0  0
  -24.9668   -4.7388  -29.7534 H   0  0  0  0  0  0
  1 11  1  0  0  0
  1 12  2  0  0  0
  2  3  1  0  0  0
  2 16  1  0  0  0
  2 17  1  0  0  0
  2 18  1  0  0  0
  3  4  1  0  0  0
  3 19  1  0  0  0
  3 20  1  0  0  0
  4  5  1  0  0  0
  4 21  1  0  0  0
  4 22  1  0  0  0
  5 15  1  0  0  0
  5 23  1  0  0  0
  5 24  1  0  0  0
  6 10  1  0  0  0
  6 11  2  0  0  0
  6 13  1  0  0  0
  7 12  1  0  0  0
  7 13  2  0  0  0
  7 25  1  0  0  0
  8  9  2  0  0  0
  9 10  1  0  0  0
  9 14  1  0  0  0
 10 26  1  0  0  0
 11 27  1  0  0  0
 12 28  1  0  0  0
 13 29  1  0  0  0
 14 15  1  0  0  0
 14 30  1  0  0  0
 14 31  1  0  0  0
 15 16  1  0  0  0
 15 32  1  0  0  0
 16 33  1  0  0  0
 16 34  1  0  0  0
M  END
> <s_m_entry_id>
7

> <s_m_entry_name>
5R84_ligand.1

> <s_m_Source_Path>
C:\Users\ifige\Documents\GitHub\WATERS\data\molecules

> <s_m_Source_File>
5R84_ligand.sdf

> <i_m_Source_File_Index>
1

> <s_user_Name>
5R84_ligand

$$$$
