5RE4_ligand
                    3D
 Structure written by MMmdl.
 21 21  0  0  1  0            999 V2000
  -19.3036   -6.1613  -26.2637 C   0  0  0  0  0  0
  -22.3156   -4.0027  -29.1250 C   0  0  0  0  0  0
  -20.9245   -4.4196  -28.6619 C   0  0  0  0  0  0
  -19.5385   -4.8515  -26.7194 C   0  0  0  0  0  0
  -18.5451   -3.8866  -26.5232 C   0  0  0  0  0  0
  -17.1430   -5.4278  -25.4949 C   0  0  0  0  0  0
  -18.0793   -6.4501  -25.6490 C   0  0  0  0  0  0
  -20.3348   -7.2652  -26.4432 C   0  0  0  0  0  0
  -20.7441   -4.4882  -27.3294 N   0  0  0  0  0  0
  -17.3642   -4.1562  -25.9107 N   0  0  0  0  0  0
  -20.0564   -4.6748  -29.4981 O   0  0  0  0  0  0
  -22.5463   -4.4574  -30.0890 H   0  0  0  0  0  0
  -23.0811   -4.3110  -28.4127 H   0  0  0  0  0  0
  -22.3632   -2.9194  -29.2344 H   0  0  0  0  0  0
  -18.6861   -2.8712  -26.8642 H   0  0  0  0  0  0
  -16.1859   -5.6276  -25.0368 H   0  0  0  0  0  0
  -17.8497   -7.4468  -25.3011 H   0  0  0  0  0  0
  -20.0174   -8.1968  -25.9735 H   0  0  0  0  0  0
  -21.2881   -6.9740  -26.0042 H   0  0  0  0  0  0
  -20.4931   -7.4634  -27.5039 H   0  0  0  0  0  0
  -21.5225   -4.2850  -26.7210 H   0  0  0  0  0  0
  1  4  1  0  0  0
  1  7  2  0  0  0
  1  8  1  0  0  0
  2  3  1  0  0  0
  2 12  1  0  0  0
  2 13  1  0  0  0
  2 14  1  0  0  0
  3  9  1  0  0  0
  3 11  2  0  0  0
  4  5  2  0  0  0
  4  9  1  0  0  0
  5 10  1  0  0  0
  5 15  1  0  0  0
  6  7  1  0  0  0
  6 10  2  0  0  0
  6 16  1  0  0  0
  7 17  1  0  0  0
  8 18  1  0  0  0
  8 19  1  0  0  0
  8 20  1  0  0  0
  9 21  1  0  0  0
M  END
> <s_m_entry_id>
8

> <s_m_entry_name>
5RE4_ligand.1

> <s_m_Source_Path>
C:\Users\ifige\Documents\GitHub\WATERS\data\molecules

> <s_m_Source_File>
5RE4_ligand.sdf

> <i_m_Source_File_Index>
1

> <s_user_Name>
5RE4_ligand

$$$$
