5RE9_ligand
                    3D
 Structure written by MMmdl.
 39 40  0  0  1  0            999 V2000
  -25.1281  -12.8229  -29.5524 N   0  3  0  0  0  0
  -24.6938   -5.4314  -29.3703 C   0  0  0  0  0  0
  -25.3086   -4.2349  -29.0116 C   0  0  0  0  0  0
  -24.9140   -3.0371  -29.5982 C   0  0  0  0  0  0
  -24.6038   -7.8343  -29.0948 C   0  0  0  0  0  0
  -25.1762   -8.9384  -28.1847 C   0  0  0  0  0  0
  -26.0640  -12.3126  -28.4339 C   0  0  0  0  0  0
  -25.8603  -13.8399  -30.4496 C   0  0  0  0  0  0
  -24.7994  -10.2268  -28.3993 N   0  0  0  0  0  0
  -23.4665   -1.7103  -31.1739 C   0  0  0  0  0  0
  -25.1386   -6.5663  -28.7211 O   0  0  0  0  0  0
  -23.9034   -3.0261  -30.5581 C   0  0  0  0  0  0
  -24.6189  -11.6244  -30.3882 C   0  0  0  0  0  0
  -23.8618  -10.6492  -29.4591 C   0  0  0  0  0  0
  -23.2875   -4.2187  -30.9343 C   0  0  0  0  0  0
  -23.6782   -5.4155  -30.3390 C   0  0  0  0  0  0
  -25.2825  -11.3262  -27.5388 C   0  0  0  0  0  0
  -25.9505   -8.6253  -27.2769 O   0  0  0  0  0  0
  -24.3360  -13.2827  -29.1255 H   0  0  0  0  0  0
  -26.0935   -4.2357  -28.2705 H   0  0  0  0  0  0
  -25.3925   -2.1214  -29.2994 H   0  0  0  0  0  0
  -24.8603   -8.0443  -30.1339 H   0  0  0  0  0  0
  -23.5188   -7.8262  -28.9837 H   0  0  0  0  0  0
  -26.3905  -13.1885  -27.8716 H   0  0  0  0  0  0
  -26.9243  -11.8455  -28.9170 H   0  0  0  0  0  0
  -25.1432  -14.1911  -31.1915 H   0  0  0  0  0  0
  -26.1891  -14.6598  -29.8098 H   0  0  0  0  0  0
  -26.7058  -13.3335  -30.9181 H   0  0  0  0  0  0
  -22.8275   -1.8615  -32.0440 H   0  0  0  0  0  0
  -24.3334   -1.1300  -31.4878 H   0  0  0  0  0  0
  -22.9089   -1.1235  -30.4439 H   0  0  0  0  0  0
  -25.4883  -11.1611  -30.8594 H   0  0  0  0  0  0
  -23.9615  -12.0344  -31.1569 H   0  0  0  0  0  0
  -23.0102  -11.1473  -28.9938 H   0  0  0  0  0  0
  -23.4555   -9.8244  -30.0434 H   0  0  0  0  0  0
  -22.5010   -4.2223  -31.6752 H   0  0  0  0  0  0
  -23.1736   -6.3192  -30.6328 H   0  0  0  0  0  0
  -24.4255  -11.8190  -27.0802 H   0  0  0  0  0  0
  -25.9183  -10.9768  -26.7235 H   0  0  0  0  0  0
  1  7  1  0  0  0
  1  8  1  0  0  0
  1 13  1  0  0  0
  1 19  1  0  0  0
  2  3  1  0  0  0
  2 11  1  0  0  0
  2 16  2  0  0  0
  3  4  2  0  0  0
  3 20  1  0  0  0
  4 12  1  0  0  0
  4 21  1  0  0  0
  5  6  1  0  0  0
  5 11  1  0  0  0
  5 22  1  0  0  0
  5 23  1  0  0  0
  6  9  1  0  0  0
  6 18  2  0  0  0
  7 17  1  0  0  0
  7 24  1  0  0  0
  7 25  1  0  0  0
  8 26  1  0  0  0
  8 27  1  0  0  0
  8 28  1  0  0  0
  9 14  1  0  0  0
  9 17  1  0  0  0
 10 12  1  0  0  0
 10 29  1  0  0  0
 10 30  1  0  0  0
 10 31  1  0  0  0
 12 15  2  0  0  0
 13 14  1  0  0  0
 13 32  1  0  0  0
 13 33  1  0  0  0
 14 34  1  0  0  0
 14 35  1  0  0  0
 15 16  1  0  0  0
 15 36  1  0  0  0
 16 37  1  0  0  0
 17 38  1  0  0  0
 17 39  1  0  0  0
M  CHG  1   1   1
M  END
> <s_m_entry_id>
9

> <s_m_entry_name>
5RE9_ligand.1

> <s_m_Source_Path>
C:\Users\ifige\Documents\GitHub\WATERS\data\molecules

> <s_m_Source_File>
5RE9_ligand.sdf

> <i_m_Source_File_Index>
1

> <s_user_Name>
5RE9_ligand

$$$$
