5REB_ligand
                    3D
 Structure written by MMmdl.
 29 30  0  0  1  0            999 V2000
  -26.5529   -5.5108  -26.0843 C   0  0  0  0  0  0
  -27.7311   -4.8471  -26.8220 C   0  0  1  0  0  0
  -27.2461   -3.6224  -27.6105 C   0  0  0  0  0  0
  -26.0818   -3.9442  -28.5668 C   0  0  0  0  0  0
  -23.7255   -5.0086  -28.7299 C   0  0  0  0  0  0
  -23.4049   -3.9689  -29.7968 C   0  0  0  0  0  0
  -23.3166   -4.2423  -31.1743 C   0  0  0  0  0  0
  -23.0565   -3.1252  -31.9551 C   0  0  0  0  0  0
  -23.1509   -2.6185  -29.5635 C   0  0  0  0  0  0
  -25.3756   -5.8599  -27.0171 C   0  0  0  0  0  0
  -24.9103   -4.6029  -27.7999 N   0  3  2  0  0  0
  -28.3989   -5.7652  -27.6678 O   0  0  0  0  0  0
  -22.9520   -1.6836  -31.0096 S   0  0  0  0  0  0
  -26.8973   -6.4140  -25.5786 H   0  0  0  0  0  0
  -26.2014   -4.8509  -25.2925 H   0  0  0  0  0  0
  -28.4738   -4.5279  -26.0878 H   0  0  0  0  0  0
  -26.9274   -2.8476  -26.9115 H   0  0  0  0  0  0
  -28.0733   -3.1873  -28.1739 H   0  0  0  0  0  0
  -25.7203   -3.0272  -29.0269 H   0  0  0  0  0  0
  -26.3373   -4.6706  -29.3331 H   0  0  0  0  0  0
  -22.8927   -5.2022  -28.0537 H   0  0  0  0  0  0
  -24.0180   -5.9552  -29.1880 H   0  0  0  0  0  0
  -23.4461   -5.2292  -31.5937 H   0  0  0  0  0  0
  -22.9450   -3.0798  -33.0277 H   0  0  0  0  0  0
  -23.1306   -2.1240  -28.6045 H   0  0  0  0  0  0
  -25.6735   -6.6062  -27.7567 H   0  0  0  0  0  0
  -24.5139   -6.2317  -26.4601 H   0  0  0  0  0  0
  -24.5644   -3.9231  -27.1363 H   0  0  0  0  0  0
  -29.1942   -5.3458  -28.0082 H   0  0  0  0  0  0
  1  2  1  0  0  0
  1 10  1  0  0  0
  1 14  1  0  0  0
  1 15  1  0  0  0
  2  3  1  0  0  0
  2 12  1  0  0  0
  2 16  1  0  0  0
  3  4  1  0  0  0
  3 17  1  0  0  0
  3 18  1  0  0  0
  4 11  1  0  0  0
  4 19  1  0  0  0
  4 20  1  0  0  0
  5  6  1  0  0  0
  5 11  1  0  0  0
  5 21  1  0  0  0
  5 22  1  0  0  0
  6  7  1  0  0  0
  6  9  2  0  0  0
  7  8  2  0  0  0
  7 23  1  0  0  0
  8 13  1  0  0  0
  8 24  1  0  0  0
  9 13  1  0  0  0
  9 25  1  0  0  0
 10 11  1  0  0  0
 10 26  1  0  0  0
 10 27  1  0  0  0
 11 28  1  0  0  0
 12 29  1  0  0  0
M  CHG  1  11   1
M  END
> <s_m_entry_id>
10

> <s_m_entry_name>
5REB_ligand.1

> <s_m_Source_Path>
C:\Users\ifige\Documents\GitHub\WATERS\data\molecules

> <s_m_Source_File>
5REB_ligand.sdf

> <i_m_Source_File_Index>
1

> <s_user_Name>
5REB_ligand

$$$$
