5REH_ligand
                    3D
 Structure written by MMmdl.
 39 40  0  0  1  0            999 V2000
  -17.0225   -4.4038  -25.5175 N   0  0  0  0  0  0
  -18.8820  -11.4852  -25.3907 N   0  0  0  0  0  0
  -19.3665   -4.9297  -25.7891 C   0  0  0  0  0  0
  -19.1250   -6.2595  -25.4270 C   0  0  0  0  0  0
  -20.2767   -7.2506  -25.3494 C   0  0  0  0  0  0
  -20.2716   -8.3091  -26.4695 C   0  0  0  0  0  0
  -19.7753  -10.4824  -25.3619 C   0  0  0  0  0  0
  -18.6076  -12.6971  -23.1844 C   0  0  0  0  0  0
  -18.4422  -15.2675  -24.6672 C   0  0  0  0  0  0
  -17.8164   -6.6553  -25.1279 C   0  0  0  0  0  0
  -16.7992   -5.7004  -25.1837 C   0  0  0  0  0  0
  -18.2935   -4.0407  -25.8264 C   0  0  0  0  0  0
  -19.4348   -9.4773  -26.1887 N   0  0  0  0  0  0
  -20.8064  -10.4998  -24.6859 O   0  0  0  0  0  0
  -19.0127  -12.7625  -24.6777 C   0  0  0  0  0  0
  -18.7690  -14.0480  -22.4586 C   0  0  0  0  0  0
  -18.0232  -15.1793  -23.1880 C   0  0  0  0  0  0
  -18.2755  -13.9162  -25.3948 C   0  0  0  0  0  0
  -18.0523  -11.3718  -25.9552 H   0  0  0  0  0  0
  -20.3615   -4.5883  -26.0350 H   0  0  0  0  0  0
  -21.2179   -6.6994  -25.3873 H   0  0  0  0  0  0
  -20.2695   -7.7303  -24.3710 H   0  0  0  0  0  0
  -19.9487   -7.8629  -27.4119 H   0  0  0  0  0  0
  -21.2938   -8.6444  -26.6488 H   0  0  0  0  0  0
  -19.2000  -11.9394  -22.6699 H   0  0  0  0  0  0
  -17.5665  -12.3795  -23.1104 H   0  0  0  0  0  0
  -19.4844  -15.5866  -24.7290 H   0  0  0  0  0  0
  -17.8592  -16.0373  -25.1736 H   0  0  0  0  0  0
  -17.5912   -7.6749  -24.8509 H   0  0  0  0  0  0
  -15.7777   -5.9737  -24.9644 H   0  0  0  0  0  0
  -18.4514   -3.0118  -26.1131 H   0  0  0  0  0  0
  -18.5770   -9.5507  -26.7200 H   0  0  0  0  0  0
  -20.0754  -13.0202  -24.7127 H   0  0  0  0  0  0
  -19.8294  -14.2979  -22.3907 H   0  0  0  0  0  0
  -18.4093  -13.9664  -21.4323 H   0  0  0  0  0  0
  -16.9471  -15.0062  -23.1251 H   0  0  0  0  0  0
  -18.2082  -16.1320  -22.6887 H   0  0  0  0  0  0
  -18.6370  -14.0099  -26.4201 H   0  0  0  0  0  0
  -17.2127  -13.6774  -25.4721 H   0  0  0  0  0  0
  1 11  1  0  0  0
  1 12  2  0  0  0
  2  7  1  0  0  0
  2 15  1  0  0  0
  2 19  1  0  0  0
  3  4  2  0  0  0
  3 12  1  0  0  0
  3 20  1  0  0  0
  4  5  1  0  0  0
  4 10  1  0  0  0
  5  6  1  0  0  0
  5 21  1  0  0  0
  5 22  1  0  0  0
  6 13  1  0  0  0
  6 23  1  0  0  0
  6 24  1  0  0  0
  7 13  1  0  0  0
  7 14  2  0  0  0
  8 15  1  0  0  0
  8 16  1  0  0  0
  8 25  1  0  0  0
  8 26  1  0  0  0
  9 17  1  0  0  0
  9 18  1  0  0  0
  9 27  1  0  0  0
  9 28  1  0  0  0
 10 11  2  0  0  0
 10 29  1  0  0  0
 11 30  1  0  0  0
 12 31  1  0  0  0
 13 32  1  0  0  0
 15 18  1  0  0  0
 15 33  1  0  0  0
 16 17  1  0  0  0
 16 34  1  0  0  0
 16 35  1  0  0  0
 17 36  1  0  0  0
 17 37  1  0  0  0
 18 38  1  0  0  0
 18 39  1  0  0  0
M  END
> <s_m_entry_id>
11

> <s_m_entry_name>
5REH_ligand.1

> <s_m_Source_Path>
C:\Users\ifige\Documents\GitHub\WATERS\data\molecules

> <s_m_Source_File>
5REH_ligand.sdf

> <i_m_Source_File_Index>
1

> <s_user_Name>
5REH_ligand

$$$$
