5REZ_ligand
                    3D
 Structure written by MMmdl.
 26 27  0  0  1  0            999 V2000
  -22.5556   -3.9378  -31.5581 C   0  0  0  0  0  0
  -22.9202   -2.4913  -29.8188 C   0  0  0  0  0  0
  -20.3987   -5.6529  -29.6361 C   0  0  0  0  0  0
  -21.8431   -6.1536  -29.3773 C   0  0  1  0  0  0
  -21.9251   -6.9364  -28.0499 C   0  0  0  0  0  0
  -22.5144   -5.9817  -26.9957 C   0  0  0  0  0  0
  -22.8268   -4.6640  -27.7173 C   0  0  0  0  0  0
  -22.8878   -5.0186  -29.2141 C   0  0  1  0  0  0
  -22.7856   -3.8328  -30.1746 C   0  0  0  0  0  0
  -22.4760   -2.7173  -32.2106 C   0  0  0  0  0  0
  -19.8614   -5.9519  -30.8166 N   0  0  0  0  0  0
  -19.7723   -5.0113  -28.7953 O   0  0  0  0  0  0
  -22.7259   -1.3879  -31.1376 S   0  0  0  0  0  0
  -22.4300   -4.8809  -32.0690 H   0  0  0  0  0  0
  -23.1129   -2.1002  -28.8319 H   0  0  0  0  0  0
  -22.1106   -6.8013  -30.2147 H   0  0  0  0  0  0
  -20.9722   -7.3603  -27.7292 H   0  0  0  0  0  0
  -22.5990   -7.7838  -28.1798 H   0  0  0  0  0  0
  -21.8236   -5.8188  -26.1679 H   0  0  0  0  0  0
  -23.4249   -6.4085  -26.5734 H   0  0  0  0  0  0
  -22.0183   -3.9549  -27.5310 H   0  0  0  0  0  0
  -23.7491   -4.2037  -27.3593 H   0  0  0  0  0  0
  -23.8727   -5.4455  -29.4121 H   0  0  0  0  0  0
  -22.2834   -2.5454  -33.2569 H   0  0  0  0  0  0
  -18.9065   -5.6900  -31.0242 H   0  0  0  0  0  0
  -20.3943   -6.4523  -31.5168 H   0  0  0  0  0  0
  1  9  1  0  0  0
  1 10  2  0  0  0
  1 14  1  0  0  0
  2  9  2  0  0  0
  2 13  1  0  0  0
  2 15  1  0  0  0
  3  4  1  0  0  0
  3 11  1  0  0  0
  3 12  2  0  0  0
  4  5  1  0  0  0
  4  8  1  0  0  0
  4 16  1  0  0  0
  5  6  1  0  0  0
  5 17  1  0  0  0
  5 18  1  0  0  0
  6  7  1  0  0  0
  6 19  1  0  0  0
  6 20  1  0  0  0
  7  8  1  0  0  0
  7 21  1  0  0  0
  7 22  1  0  0  0
  8  9  1  0  0  0
  8 23  1  0  0  0
 10 13  1  0  0  0
 10 24  1  0  0  0
 11 25  1  0  0  0
 11 26  1  0  0  0
M  END
> <s_m_entry_id>
12

> <s_m_entry_name>
5REZ_ligand.1

> <s_m_Source_Path>
C:\Users\ifige\Documents\GitHub\WATERS\data\molecules

> <s_m_Source_File>
5REZ_ligand.sdf

> <i_m_Source_File_Index>
1

> <s_user_Name>
5REZ_ligand

$$$$
