5RF1_ligand
                    3D
 Structure written by MMmdl.
 17 17  0  0  1  0            999 V2000
  -20.3777   -5.2102  -33.6157 C   0  0  0  0  0  0
  -20.9770   -3.9984  -33.2895 C   0  0  0  0  0  0
  -18.7965   -8.1787  -32.0410 N   0  0  0  0  0  0
  -21.9362   -3.9464  -32.2824 C   0  0  0  0  0  0
  -20.9582   -8.9858  -33.2116 O   0  0  0  0  0  0
  -22.3164   -5.1050  -31.6061 C   0  0  0  0  0  0
  -21.7183   -6.3222  -31.9302 C   0  0  0  0  0  0
  -20.7469   -6.3722  -32.9334 C   0  0  0  0  0  0
  -19.1994   -7.7394  -34.5725 O   0  0  0  0  0  0
  -19.9511   -7.9279  -33.3278 S   0  0  0  0  0  0
  -22.7117   -2.2703  -31.8223 Br  0  0  0  0  0  0
  -19.6260   -5.2368  -34.3905 H   0  0  0  0  0  0
  -20.6976   -3.0996  -33.8169 H   0  0  0  0  0  0
  -18.0971   -7.4302  -31.9887 H   0  0  0  0  0  0
  -19.2353   -8.3066  -31.1236 H   0  0  0  0  0  0
  -23.0628   -5.0586  -30.8267 H   0  0  0  0  0  0
  -22.0051   -7.2197  -31.4003 H   0  0  0  0  0  0
  1  2  1  0  0  0
  1  8  2  0  0  0
  1 12  1  0  0  0
  2  4  2  0  0  0
  2 13  1  0  0  0
  3 10  1  0  0  0
  3 14  1  0  0  0
  3 15  1  0  0  0
  4  6  1  0  0  0
  4 11  1  0  0  0
  5 10  2  0  0  0
  6  7  2  0  0  0
  6 16  1  0  0  0
  7  8  1  0  0  0
  7 17  1  0  0  0
  8 10  1  0  0  0
  9 10  2  0  0  0
M  END
> <s_m_entry_id>
13

> <s_m_entry_name>
5RF1_ligand.1

> <s_m_Source_Path>
C:\Users\ifige\Documents\GitHub\WATERS\data\molecules

> <s_m_Source_File>
5RF1_ligand.sdf

> <i_m_Source_File_Index>
1

> <s_user_Name>
5RF1_ligand

$$$$
