5RF2_ligand
                    3D
 Structure written by MMmdl.
 14 13  0  0  1  0            999 V2000
  -24.4917   -4.1398  -26.5204 C   0  0  0  0  0  0
  -25.6722   -3.9431  -25.5597 C   0  0  0  0  0  0
  -26.9934   -3.9899  -26.2643 C   0  0  0  0  0  0
  -27.2848   -3.0812  -27.1836 N   0  3  0  0  0  0
  -27.8762   -4.9337  -25.9687 N   0  0  0  0  0  0
  -23.5404   -4.0935  -25.9895 H   0  0  0  0  0  0
  -24.5511   -5.1071  -27.0190 H   0  0  0  0  0  0
  -24.4828   -3.3704  -27.2929 H   0  0  0  0  0  0
  -25.5947   -2.9779  -25.0570 H   0  0  0  0  0  0
  -25.6493   -4.7039  -24.7768 H   0  0  0  0  0  0
  -28.1988   -3.0764  -27.6146 H   0  0  0  0  0  0
  -26.6241   -2.3438  -27.3913 H   0  0  0  0  0  0
  -28.7857   -4.9198  -26.4086 H   0  0  0  0  0  0
  -27.6663   -5.6208  -25.2592 H   0  0  0  0  0  0
  1  2  1  0  0  0
  1  6  1  0  0  0
  1  7  1  0  0  0
  1  8  1  0  0  0
  2  3  1  0  0  0
  2  9  1  0  0  0
  2 10  1  0  0  0
  3  4  2  0  0  0
  3  5  1  0  0  0
  4 11  1  0  0  0
  4 12  1  0  0  0
  5 13  1  0  0  0
  5 14  1  0  0  0
M  CHG  1   4   1
M  END
> <s_m_entry_id>
14

> <s_m_entry_name>
5RF2_ligand.1

> <s_m_Source_Path>
C:\Users\ifige\Documents\GitHub\WATERS\data\molecules

> <s_m_Source_File>
5RF2_ligand.sdf

> <i_m_Source_File_Index>
1

> <s_user_Name>
5RF2_ligand

$$$$
