5RF3_ligand
                    3D
 Structure written by MMmdl.
 12 12  0  0  1  0            999 V2000
  -19.3843   -4.7096  -25.6475 N   0  0  0  0  0  0
  -17.5112   -7.8626  -25.2238 N   0  0  0  0  0  0
  -17.7855   -6.5050  -25.3767 C   0  0  0  0  0  0
  -19.0950   -6.0299  -25.5047 C   0  0  0  0  0  0
  -18.3181   -3.8712  -25.6606 C   0  0  0  0  0  0
  -16.7641   -5.5524  -25.4006 C   0  0  0  0  0  0
  -17.0123   -4.2249  -25.5416 N   0  0  0  0  0  0
  -16.5666   -8.1923  -25.3757 H   0  0  0  0  0  0
  -18.2789   -8.5184  -25.1754 H   0  0  0  0  0  0
  -19.9377   -6.7044  -25.5027 H   0  0  0  0  0  0
  -18.5288   -2.8223  -25.7880 H   0  0  0  0  0  0
  -15.7277   -5.8422  -25.3056 H   0  0  0  0  0  0
  1  4  1  0  0  0
  1  5  2  0  0  0
  2  3  1  0  0  0
  2  8  1  0  0  0
  2  9  1  0  0  0
  3  4  2  0  0  0
  3  6  1  0  0  0
  4 10  1  0  0  0
  5  7  1  0  0  0
  5 11  1  0  0  0
  6  7  2  0  0  0
  6 12  1  0  0  0
M  END
> <s_m_entry_id>
15

> <s_m_entry_name>
5RF3_ligand.1

> <s_m_Source_Path>
C:\Users\ifige\Documents\GitHub\WATERS\data\molecules

> <s_m_Source_File>
5RF3_ligand.sdf

> <i_m_Source_File_Index>
1

> <s_user_Name>
5RF3_ligand

$$$$
