5RF6_ligand
                    3D
 Structure written by MMmdl.
 28 29  0  0  1  0            999 V2000
  -20.0292   -5.0570  -30.0831 N   0  0  0  0  0  0
  -26.1523   -4.1700  -27.2688 N   0  0  0  0  0  0
  -24.4543   -5.7018  -28.1951 C   0  0  0  0  0  0
  -24.8851   -4.4087  -27.8470 C   0  0  0  0  0  0
  -23.9835   -3.3624  -28.1211 C   0  0  0  0  0  0
  -26.5038   -2.8891  -26.6631 C   0  0  0  0  0  0
  -25.8112   -2.6026  -25.3172 C   0  0  0  0  0  0
  -26.7651   -5.7371  -25.3678 C   0  0  0  0  0  0
  -21.0743   -4.9392  -29.6035 C   0  0  0  0  0  0
  -27.0404   -5.2361  -26.8000 C   0  0  0  0  0  0
  -22.3887   -4.7966  -29.0015 C   0  0  0  0  0  0
  -23.2018   -5.9057  -28.7746 C   0  0  0  0  0  0
  -25.6327   -3.8314  -24.3949 C   0  0  0  0  0  0
  -22.7609   -3.5338  -28.6836 N   0  0  0  0  0  0
  -26.7544   -4.7155  -24.3668 O   0  0  0  0  0  0
  -25.0671   -6.5717  -28.0221 H   0  0  0  0  0  0
  -24.2168   -2.3359  -27.8952 H   0  0  0  0  0  0
  -27.5864   -2.7636  -26.6470 H   0  0  0  0  0  0
  -26.2074   -2.0981  -27.3485 H   0  0  0  0  0  0
  -26.3739   -1.8258  -24.8035 H   0  0  0  0  0  0
  -24.8290   -2.1645  -25.4945 H   0  0  0  0  0  0
  -25.8389   -6.3124  -25.3369 H   0  0  0  0  0  0
  -27.5475   -6.4466  -25.0980 H   0  0  0  0  0  0
  -26.9837   -6.0822  -27.4802 H   0  0  0  0  0  0
  -28.0798   -4.9373  -26.9402 H   0  0  0  0  0  0
  -22.8815   -6.9049  -29.0342 H   0  0  0  0  0  0
  -25.4550   -3.4830  -23.3772 H   0  0  0  0  0  0
  -24.7282   -4.3763  -24.6704 H   0  0  0  0  0  0
  1  9  3  0  0  0
  2  4  1  0  0  0
  2  6  1  0  0  0
  2 10  1  0  0  0
  3  4  1  0  0  0
  3 12  2  0  0  0
  3 16  1  0  0  0
  4  5  2  0  0  0
  5 14  1  0  0  0
  5 17  1  0  0  0
  6  7  1  0  0  0
  6 18  1  0  0  0
  6 19  1  0  0  0
  7 13  1  0  0  0
  7 20  1  0  0  0
  7 21  1  0  0  0
  8 10  1  0  0  0
  8 15  1  0  0  0
  8 22  1  0  0  0
  8 23  1  0  0  0
  9 11  1  0  0  0
 10 24  1  0  0  0
 10 25  1  0  0  0
 11 12  1  0  0  0
 11 14  2  0  0  0
 12 26  1  0  0  0
 13 15  1  0  0  0
 13 27  1  0  0  0
 13 28  1  0  0  0
M  END
> <s_m_entry_id>
16

> <s_m_entry_name>
5RF6_ligand.1

> <s_m_Source_Path>
C:\Users\ifige\Documents\GitHub\WATERS\data\molecules

> <s_m_Source_File>
5RF6_ligand.sdf

> <i_m_Source_File_Index>
1

> <s_user_Name>
5RF6_ligand

$$$$
