5RF7_ligand
                    3D
 Structure written by MMmdl.
 38 40  0  0  1  0            999 V2000
  -23.8411   -3.1811  -30.8838 N   0  3  0  0  0  0
  -17.3606   -4.1215  -25.7829 N   0  0  0  0  0  0
  -22.3746   -5.2328  -30.6729 C   0  0  0  0  0  0
  -22.6617   -3.9638  -31.5089 C   0  0  0  0  0  0
  -20.9248   -4.8266  -28.6960 C   0  0  0  0  0  0
  -20.8031   -4.3957  -27.2177 C   0  0  0  0  0  0
  -19.4274   -4.5663  -26.6031 C   0  0  0  0  0  0
  -17.5237   -5.4747  -25.6628 C   0  0  0  0  0  0
  -19.2143   -7.1397  -26.0909 C   0  0  0  0  0  0
  -24.0963   -1.8756  -31.6564 C   0  0  0  0  0  0
  -17.0433   -7.6283  -25.1607 C   0  0  0  0  0  0
  -18.3000   -8.0655  -25.5842 C   0  0  0  0  0  0
  -18.8246   -5.7910  -26.1482 C   0  0  0  0  0  0
  -23.5790   -2.8745  -29.3932 C   0  0  0  0  0  0
  -23.3450   -4.2060  -28.6540 C   0  0  0  0  0  0
  -18.4901   -3.5835  -26.3410 C   0  0  0  0  0  0
  -22.1556   -4.8166  -29.2742 N   0  0  0  0  0  0
  -16.6277   -6.3362  -25.1804 N   0  0  0  0  0  0
  -19.9131   -5.1737  -29.3119 O   0  0  0  0  0  0
  -24.6757   -3.7495  -30.9396 H   0  0  0  0  0  0
  -16.5580   -3.5622  -25.5273 H   0  0  0  0  0  0
  -21.5248   -5.7811  -31.0833 H   0  0  0  0  0  0
  -23.2349   -5.9008  -30.7055 H   0  0  0  0  0  0
  -21.8085   -3.2898  -31.5436 H   0  0  0  0  0  0
  -22.9620   -4.2158  -32.5268 H   0  0  0  0  0  0
  -21.5152   -4.9817  -26.6375 H   0  0  0  0  0  0
  -21.1192   -3.3544  -27.1512 H   0  0  0  0  0  0
  -20.1874   -7.4547  -26.4367 H   0  0  0  0  0  0
  -24.8951   -1.3330  -31.1495 H   0  0  0  0  0  0
  -23.1706   -1.2985  -31.6842 H   0  0  0  0  0  0
  -24.4194   -2.1874  -32.6468 H   0  0  0  0  0  0
  -16.3224   -8.3369  -24.7812 H   0  0  0  0  0  0
  -18.5556   -9.1130  -25.5351 H   0  0  0  0  0  0
  -24.4695   -2.3708  -29.0193 H   0  0  0  0  0  0
  -22.7227   -2.1994  -29.3400 H   0  0  0  0  0  0
  -24.2013   -4.8682  -28.7859 H   0  0  0  0  0  0
  -23.2482   -4.0304  -27.5840 H   0  0  0  0  0  0
  -18.5320   -2.5202  -26.5196 H   0  0  0  0  0  0
  1  4  1  0  0  0
  1 10  1  0  0  0
  1 14  1  0  0  0
  1 20  1  0  0  0
  2  8  1  0  0  0
  2 16  1  0  0  0
  2 21  1  0  0  0
  3  4  1  0  0  0
  3 17  1  0  0  0
  3 22  1  0  0  0
  3 23  1  0  0  0
  4 24  1  0  0  0
  4 25  1  0  0  0
  5  6  1  0  0  0
  5 17  1  0  0  0
  5 19  2  0  0  0
  6  7  1  0  0  0
  6 26  1  0  0  0
  6 27  1  0  0  0
  7 13  1  0  0  0
  7 16  2  0  0  0
  8 13  2  0  0  0
  8 18  1  0  0  0
  9 12  2  0  0  0
  9 13  1  0  0  0
  9 28  1  0  0  0
 10 29  1  0  0  0
 10 30  1  0  0  0
 10 31  1  0  0  0
 11 12  1  0  0  0
 11 18  2  0  0  0
 11 32  1  0  0  0
 12 33  1  0  0  0
 14 15  1  0  0  0
 14 34  1  0  0  0
 14 35  1  0  0  0
 15 17  1  0  0  0
 15 36  1  0  0  0
 15 37  1  0  0  0
 16 38  1  0  0  0
M  CHG  1   1   1
M  END
> <s_m_entry_id>
17

> <s_m_entry_name>
5RF7_ligand.1

> <s_m_Source_Path>
C:\Users\ifige\Documents\GitHub\WATERS\data\molecules

> <s_m_Source_File>
5RF7_ligand.sdf

> <i_m_Source_File_Index>
1

> <s_user_Name>
5RF7_ligand

$$$$
