5RFE_ligand
                    3D
 Structure written by MMmdl.
 33 34  0  0  1  0            999 V2000
  -20.3151   -8.1081  -25.6692 C   0  0  0  0  0  0
  -22.5081   -9.0305  -25.6287 C   0  0  0  0  0  0
  -22.6076   -1.2689  -30.9803 C   0  0  0  0  0  0
  -22.7172   -4.9189  -31.7701 C   0  0  0  0  0  0
  -22.4870   -3.5522  -31.8933 C   0  0  0  0  0  0
  -22.8080   -2.7004  -30.8371 C   0  0  0  0  0  0
  -23.3553   -3.2108  -29.6560 C   0  0  0  0  0  0
  -23.5828   -4.5799  -29.5363 C   0  0  0  0  0  0
  -23.2650   -5.4370  -30.5941 C   0  0  0  0  0  0
  -23.5375   -6.9345  -30.4834 C   0  0  0  0  0  0
  -23.0357   -7.5784  -29.2680 N   0  0  0  0  0  0
  -21.7460   -7.8569  -28.9930 C   0  0  0  0  0  0
  -20.8382   -7.5880  -29.7850 O   0  0  0  0  0  0
  -21.5235   -8.4014  -27.7666 N   0  0  0  0  0  0
  -20.1688   -8.3801  -27.1826 C   0  0  0  0  0  0
  -21.1991   -9.0497  -25.0689 O   0  0  0  0  0  0
  -22.4648   -9.3529  -27.1362 C   0  0  0  0  0  0
  -22.4431   -0.1301  -31.0888 N   0  0  0  0  0  0
  -20.6836   -7.0961  -25.4891 H   0  0  0  0  0  0
  -19.3430   -8.1804  -25.1798 H   0  0  0  0  0  0
  -22.9685   -8.0557  -25.4567 H   0  0  0  0  0  0
  -23.1216   -9.7655  -25.1070 H   0  0  0  0  0  0
  -22.4780   -5.5735  -32.5960 H   0  0  0  0  0  0
  -22.0746   -3.1673  -32.8151 H   0  0  0  0  0  0
  -23.6135   -2.5564  -28.8332 H   0  0  0  0  0  0
  -24.0111   -4.9705  -28.6258 H   0  0  0  0  0  0
  -23.1385   -7.4611  -31.3527 H   0  0  0  0  0  0
  -24.6185   -7.0723  -30.5112 H   0  0  0  0  0  0
  -23.7308   -7.7849  -28.5628 H   0  0  0  0  0  0
  -19.6999   -9.3505  -27.3498 H   0  0  0  0  0  0
  -19.5293   -7.6217  -27.6391 H   0  0  0  0  0  0
  -23.4702   -9.3121  -27.5576 H   0  0  0  0  0  0
  -22.0925  -10.3664  -27.2959 H   0  0  0  0  0  0
  1 15  1  0  0  0
  1 16  1  0  0  0
  1 19  1  0  0  0
  1 20  1  0  0  0
  2 16  1  0  0  0
  2 17  1  0  0  0
  2 21  1  0  0  0
  2 22  1  0  0  0
  3  6  1  0  0  0
  3 18  3  0  0  0
  4  5  1  0  0  0
  4  9  2  0  0  0
  4 23  1  0  0  0
  5  6  2  0  0  0
  5 24  1  0  0  0
  6  7  1  0  0  0
  7  8  2  0  0  0
  7 25  1  0  0  0
  8  9  1  0  0  0
  8 26  1  0  0  0
  9 10  1  0  0  0
 10 11  1  0  0  0
 10 27  1  0  0  0
 10 28  1  0  0  0
 11 12  1  0  0  0
 11 29  1  0  0  0
 12 13  2  0  0  0
 12 14  1  0  0  0
 14 15  1  0  0  0
 14 17  1  0  0  0
 15 30  1  0  0  0
 15 31  1  0  0  0
 17 32  1  0  0  0
 17 33  1  0  0  0
M  END
> <s_m_entry_id>
18

> <s_m_entry_name>
5RFE_ligand.1

> <s_m_Source_Path>
C:\Users\ifige\Documents\GitHub\WATERS\data\molecules

> <s_m_Source_File>
5RFE_ligand.sdf

> <i_m_Source_File_Index>
1

> <s_user_Name>
5RFE_ligand

$$$$
