5RG1_ligand
                    3D
 Structure written by MMmdl.
 35 35  0  0  1  0            999 V2000
  -19.9332   -7.2602  -29.2414 N   0  0  0  0  0  0
  -20.8578   -6.9992  -26.9393 C   0  0  0  0  0  0
  -19.6238   -6.3452  -26.3374 C   0  0  0  0  0  0
  -18.4470   -7.1034  -26.1753 C   0  0  0  0  0  0
  -17.2695   -6.4873  -25.7195 C   0  0  0  0  0  0
  -17.2602   -5.1067  -25.4507 C   0  0  0  0  0  0
  -19.6319   -4.9793  -25.9760 C   0  0  0  0  0  0
  -23.3287   -2.7929  -29.3824 C   0  0  0  0  0  0
  -18.3608   -8.8268  -30.2460 C   0  0  0  0  0  0
  -21.2707   -5.2566  -28.7586 C   0  0  0  0  0  0
  -22.6387   -3.2616  -28.1694 C   0  0  0  0  0  0
  -23.9335   -2.3925  -30.3628 C   0  0  0  0  0  0
  -19.6031   -8.5501  -29.4040 C   0  0  0  0  0  0
  -21.0679   -6.7517  -28.4612 C   0  0  1  0  0  0
  -18.4464   -4.3559  -25.5474 C   0  0  0  0  0  0
  -22.3495   -4.6934  -28.1858 N   0  0  0  0  0  0
  -20.2339   -9.4841  -28.9079 O   0  0  0  0  0  0
  -16.0923   -4.4965  -25.1196 O   0  0  0  0  0  0
  -20.4393   -4.6381  -29.4254 O   0  0  0  0  0  0
  -24.8927   -1.7991  -31.7954 Br  0  0  0  0  0  0
  -19.3744   -6.5474  -29.6914 H   0  0  0  0  0  0
  -21.7302   -6.6484  -26.3867 H   0  0  0  0  0  0
  -20.8145   -8.0689  -26.7344 H   0  0  0  0  0  0
  -18.4338   -8.1525  -26.4309 H   0  0  0  0  0  0
  -16.3670   -7.0726  -25.6180 H   0  0  0  0  0  0
  -20.5345   -4.3941  -26.0672 H   0  0  0  0  0  0
  -18.1313   -9.8930  -30.2606 H   0  0  0  0  0  0
  -18.5142   -8.4960  -31.2737 H   0  0  0  0  0  0
  -17.4960   -8.3004  -29.8389 H   0  0  0  0  0  0
  -23.2716   -3.0352  -27.3105 H   0  0  0  0  0  0
  -21.7226   -2.6821  -28.0504 H   0  0  0  0  0  0
  -21.9673   -7.2774  -28.7880 H   0  0  0  0  0  0
  -18.4468   -3.3024  -25.3130 H   0  0  0  0  0  0
  -23.0083   -5.2906  -27.7062 H   0  0  0  0  0  0
  -15.3553   -5.1156  -25.0776 H   0  0  0  0  0  0
  1 13  1  0  0  0
  1 14  1  0  0  0
  1 21  1  0  0  0
  2  3  1  0  0  0
  2 14  1  0  0  0
  2 22  1  0  0  0
  2 23  1  0  0  0
  3  4  1  0  0  0
  3  7  2  0  0  0
  4  5  2  0  0  0
  4 24  1  0  0  0
  5  6  1  0  0  0
  5 25  1  0  0  0
  6 15  2  0  0  0
  6 18  1  0  0  0
  7 15  1  0  0  0
  7 26  1  0  0  0
  8 11  1  0  0  0
  8 12  3  0  0  0
  9 13  1  0  0  0
  9 27  1  0  0  0
  9 28  1  0  0  0
  9 29  1  0  0  0
 10 14  1  0  0  0
 10 16  1  0  0  0
 10 19  2  0  0  0
 11 16  1  0  0  0
 11 30  1  0  0  0
 11 31  1  0  0  0
 12 20  1  0  0  0
 13 17  2  0  0  0
 14 32  1  0  0  0
 15 33  1  0  0  0
 16 34  1  0  0  0
 18 35  1  0  0  0
M  END
> <s_m_entry_id>
19

> <s_m_entry_name>
5RG1_ligand.1

> <s_m_Source_Path>
C:\Users\ifige\Documents\GitHub\WATERS\data\molecules

> <s_m_Source_File>
5RG1_ligand.sdf

> <i_m_Source_File_Index>
1

> <s_user_Name>
5RG1_ligand

$$$$
