5RGH_ligand
                    3D
 Structure written by MMmdl.
 28 29  0  0  1  0            999 V2000
  -22.5795   -3.3732  -32.0619 C   0  0  0  0  0  0
  -23.2747   -3.0204  -29.6024 C   0  0  0  0  0  0
  -28.1008   -4.5278  -26.6088 C   0  0  0  0  0  0
  -26.7046   -4.8677  -27.0561 C   0  0  0  0  0  0
  -24.3633   -4.9904  -27.6476 C   0  0  0  0  0  0
  -22.8860   -4.7903  -27.9333 C   0  0  0  0  0  0
  -22.6909   -5.2713  -30.3416 C   0  0  0  0  0  0
  -22.0144   -4.7382  -31.6250 C   0  0  0  0  0  0
  -22.6723   -2.3929  -30.8728 C   0  0  2  0  0  0
  -23.3441   -1.2973  -31.2270 F   0  0  0  0  0  0
  -26.3619   -6.0275  -27.5636 N   0  0  0  0  0  0
  -25.0191   -6.0957  -27.9125 N   0  0  0  0  0  0
  -22.5786   -4.2723  -29.2714 N   0  0  0  0  0  0
  -25.3759   -3.7566  -26.9552 S   0  0  0  0  0  0
  -23.5635   -3.5297  -32.4991 H   0  0  0  0  0  0
  -21.9661   -2.9453  -32.8564 H   0  0  0  0  0  0
  -24.3406   -3.2076  -29.7315 H   0  0  0  0  0  0
  -23.1756   -2.3153  -28.7755 H   0  0  0  0  0  0
  -28.4825   -3.6548  -27.1391 H   0  0  0  0  0  0
  -28.8019   -5.3433  -26.7751 H   0  0  0  0  0  0
  -28.1295   -4.3007  -25.5446 H   0  0  0  0  0  0
  -22.3354   -5.7198  -27.7790 H   0  0  0  0  0  0
  -22.4708   -4.0881  -27.2084 H   0  0  0  0  0  0
  -22.2047   -6.2002  -30.0395 H   0  0  0  0  0  0
  -23.7416   -5.5031  -30.5275 H   0  0  0  0  0  0
  -20.9412   -4.6463  -31.4481 H   0  0  0  0  0  0
  -22.1222   -5.4625  -32.4336 H   0  0  0  0  0  0
  -21.6792   -2.0697  -30.5966 H   0  0  0  0  0  0
  1  8  1  0  0  0
  1  9  1  0  0  0
  1 15  1  0  0  0
  1 16  1  0  0  0
  2  9  1  0  0  0
  2 13  1  0  0  0
  2 17  1  0  0  0
  2 18  1  0  0  0
  3  4  1  0  0  0
  3 19  1  0  0  0
  3 20  1  0  0  0
  3 21  1  0  0  0
  4 11  2  0  0  0
  4 14  1  0  0  0
  5  6  1  0  0  0
  5 12  2  0  0  0
  5 14  1  0  0  0
  6 13  1  0  0  0
  6 22  1  0  0  0
  6 23  1  0  0  0
  7  8  1  0  0  0
  7 13  1  0  0  0
  7 24  1  0  0  0
  7 25  1  0  0  0
  8 26  1  0  0  0
  8 27  1  0  0  0
  9 10  1  0  0  0
  9 28  1  0  0  0
 11 12  1  0  0  0
M  END
> <s_m_entry_id>
20

> <s_m_entry_name>
5RGH_ligand.1

> <s_m_Source_Path>
C:\Users\ifige\Documents\GitHub\WATERS\data\molecules

> <s_m_Source_File>
5RGH_ligand.sdf

> <i_m_Source_File_Index>
1

> <s_user_Name>
5RGH_ligand

$$$$
