5RGI_ligand
                    3D
 Structure written by MMmdl.
 30 31  0  0  1  0            999 V2000
  -21.4157   -3.7525  -24.4680 C   0  0  0  0  0  0
  -22.6568   -4.2594  -24.6042 N   0  0  0  0  0  0
  -23.5664   -4.5528  -23.5035 C   0  0  0  0  0  0
  -24.1167   -3.4152  -22.6721 C   0  0  0  0  0  0
  -21.2036   -3.9405  -26.9566 C   0  0  0  0  0  0
  -19.3037   -3.1641  -25.5964 C   0  0  0  0  0  0
  -18.3563   -4.3535  -25.5526 C   0  0  0  0  0  0
  -18.6264   -5.7171  -25.4326 C   0  0  0  0  0  0
  -17.3985   -6.3368  -25.4186 C   0  0  0  0  0  0
  -16.9414   -7.7670  -25.3117 C   0  0  0  0  0  0
  -25.0113   -4.1314  -23.6519 C   0  0  0  0  0  0
  -20.7267   -3.5446  -25.6238 N   0  0  0  0  0  0
  -17.0613   -4.1426  -25.6246 N   0  0  0  0  0  0
  -16.4398   -5.3876  -25.5376 O   0  0  0  0  0  0
  -20.9493   -3.4660  -23.3621 O   0  0  0  0  0  0
  -22.9144   -4.6440  -25.5030 H   0  0  0  0  0  0
  -23.3642   -5.4996  -23.0008 H   0  0  0  0  0  0
  -23.8045   -2.3954  -22.8958 H   0  0  0  0  0  0
  -24.2693   -3.5859  -21.6081 H   0  0  0  0  0  0
  -20.8429   -3.2505  -27.7163 H   0  0  0  0  0  0
  -20.8487   -4.9405  -27.2052 H   0  0  0  0  0  0
  -22.2895   -3.9349  -27.0328 H   0  0  0  0  0  0
  -19.0944   -2.5172  -26.4483 H   0  0  0  0  0  0
  -19.1130   -2.5364  -24.7240 H   0  0  0  0  0  0
  -19.5928   -6.1908  -25.3552 H   0  0  0  0  0  0
  -15.9172   -7.8444  -24.9439 H   0  0  0  0  0  0
  -17.5733   -8.3431  -24.6362 H   0  0  0  0  0  0
  -16.9722   -8.2590  -26.2831 H   0  0  0  0  0  0
  -25.7907   -4.7860  -23.2608 H   0  0  0  0  0  0
  -25.3244   -3.5995  -24.5507 H   0  0  0  0  0  0
  1  2  1  0  0  0
  1 12  1  0  0  0
  1 15  2  0  0  0
  2  3  1  0  0  0
  2 16  1  0  0  0
  3  4  1  0  0  0
  3 11  1  0  0  0
  3 17  1  0  0  0
  4 11  1  0  0  0
  4 18  1  0  0  0
  4 19  1  0  0  0
  5 12  1  0  0  0
  5 20  1  0  0  0
  5 21  1  0  0  0
  5 22  1  0  0  0
  6  7  1  0  0  0
  6 12  1  0  0  0
  6 23  1  0  0  0
  6 24  1  0  0  0
  7  8  1  0  0  0
  7 13  2  0  0  0
  8  9  2  0  0  0
  8 25  1  0  0  0
  9 10  1  0  0  0
  9 14  1  0  0  0
 10 26  1  0  0  0
 10 27  1  0  0  0
 10 28  1  0  0  0
 11 29  1  0  0  0
 11 30  1  0  0  0
 13 14  1  0  0  0
M  END
> <s_m_entry_id>
21

> <s_m_entry_name>
5RGI_ligand.1

> <s_m_Source_Path>
C:\Users\ifige\Documents\GitHub\WATERS\data\molecules

> <s_m_Source_File>
5RGI_ligand.sdf

> <i_m_Source_File_Index>
1

> <s_user_Name>
5RGI_ligand

$$$$
