5RGK_ligand
                    3D
 Structure written by MMmdl.
 31 32  0  0  1  0            999 V2000
  -18.2820   -6.7646  -25.3636 C   0  0  0  0  0  0
  -19.0124   -4.5288  -25.8687 C   0  0  0  0  0  0
  -16.7374   -4.9411  -25.6298 C   0  0  0  0  0  0
  -19.8198  -13.2986  -25.6987 C   0  0  0  0  0  0
  -19.6502  -14.6600  -25.4399 C   0  0  0  0  0  0
  -19.7834  -15.1542  -24.1436 C   0  0  0  0  0  0
  -20.0958  -14.2862  -23.0995 C   0  0  0  0  0  0
  -20.2686  -12.9256  -23.3514 C   0  0  0  0  0  0
  -20.1172  -12.4063  -24.6478 C   0  0  0  0  0  0
  -20.3153  -10.9234  -24.8712 C   0  0  0  0  0  0
  -19.4628   -8.9291  -26.1050 C   0  0  0  0  0  0
  -18.5656   -8.2292  -25.0621 C   0  0  0  0  0  0
  -19.3267   -5.8625  -25.6031 C   0  0  0  0  0  0
  -16.9641   -6.2927  -25.3732 C   0  0  0  0  0  0
  -19.7055  -12.8732  -26.9807 F   0  0  0  0  0  0
  -19.5890  -10.3644  -25.8570 N   0  0  0  0  0  0
  -17.7385   -4.0617  -25.8863 N   0  0  0  0  0  0
  -21.0596  -10.2729  -24.1347 O   0  0  0  0  0  0
  -19.7937   -3.8119  -26.0739 H   0  0  0  0  0  0
  -15.7300   -4.5525  -25.6529 H   0  0  0  0  0  0
  -19.4184  -15.3370  -26.2498 H   0  0  0  0  0  0
  -19.6515  -16.2090  -23.9502 H   0  0  0  0  0  0
  -20.2059  -14.6679  -22.0948 H   0  0  0  0  0  0
  -20.5104  -12.2742  -22.5224 H   0  0  0  0  0  0
  -19.0309   -8.8024  -27.0988 H   0  0  0  0  0  0
  -20.4524   -8.4685  -26.1447 H   0  0  0  0  0  0
  -19.0264   -8.2868  -24.0765 H   0  0  0  0  0  0
  -17.6187   -8.7694  -24.9906 H   0  0  0  0  0  0
  -20.3583   -6.1829  -25.5869 H   0  0  0  0  0  0
  -16.1309   -6.9556  -25.1861 H   0  0  0  0  0  0
  -19.0673  -10.9722  -26.4734 H   0  0  0  0  0  0
  1 12  1  0  0  0
  1 13  1  0  0  0
  1 14  2  0  0  0
  2 13  2  0  0  0
  2 17  1  0  0  0
  2 19  1  0  0  0
  3 14  1  0  0  0
  3 17  2  0  0  0
  3 20  1  0  0  0
  4  5  1  0  0  0
  4  9  2  0  0  0
  4 15  1  0  0  0
  5  6  2  0  0  0
  5 21  1  0  0  0
  6  7  1  0  0  0
  6 22  1  0  0  0
  7  8  2  0  0  0
  7 23  1  0  0  0
  8  9  1  0  0  0
  8 24  1  0  0  0
  9 10  1  0  0  0
 10 16  1  0  0  0
 10 18  2  0  0  0
 11 12  1  0  0  0
 11 16  1  0  0  0
 11 25  1  0  0  0
 11 26  1  0  0  0
 12 27  1  0  0  0
 12 28  1  0  0  0
 13 29  1  0  0  0
 14 30  1  0  0  0
 16 31  1  0  0  0
M  END
> <s_m_entry_id>
22

> <s_m_entry_name>
5RGK_ligand.1

> <s_m_Source_Path>
C:\Users\ifige\Documents\GitHub\WATERS\data\molecules

> <s_m_Source_File>
5RGK_ligand.sdf

> <i_m_Source_File_Index>
1

> <s_user_Name>
5RGK_ligand

$$$$
