5RGU_ligand
                    3D
 Structure written by MMmdl.
 36 38  0  0  1  0            999 V2000
  -16.8577   -4.3311  -25.4262 N   0  0  0  0  0  0
  -19.1156   -4.9571  -34.0666 N   0  0  0  0  0  0
  -16.4812   -5.6248  -25.2576 C   0  0  0  0  0  0
  -18.1458   -4.1302  -25.8087 C   0  0  0  0  0  0
  -21.7840   -3.7514  -29.9066 C   0  0  0  0  0  0
  -22.4741   -2.5677  -30.1835 C   0  0  0  0  0  0
  -22.8011   -2.2366  -31.4964 C   0  0  0  0  0  0
  -21.7657   -4.2853  -32.2786 C   0  0  0  0  0  0
  -18.9498   -5.4431  -35.3602 C   0  0  0  0  0  0
  -17.9793   -5.6629  -36.0758 O   0  0  0  0  0  0
  -20.4666   -5.5602  -35.5310 C   0  0  0  0  0  0
  -20.5488   -4.6599  -34.2713 C   0  0  1  0  0  0
  -21.4061   -5.1523  -33.2846 O   0  0  0  0  0  0
  -22.4606   -3.0983  -32.5382 C   0  0  0  0  0  0
  -21.4485   -4.6163  -30.9627 C   0  0  0  0  0  0
  -21.4919   -4.0216  -28.5592 N   0  0  0  0  0  0
  -20.4765   -4.7659  -28.0736 C   0  0  0  0  0  0
  -19.6020   -5.2854  -28.7725 O   0  0  0  0  0  0
  -20.4484   -4.9373  -26.5454 C   0  0  0  0  0  0
  -19.0405   -5.1843  -26.0182 C   0  0  0  0  0  0
  -17.2692   -6.7181  -25.4179 N   0  0  0  0  0  0
  -18.5487   -6.4777  -25.8043 C   0  0  0  0  0  0
  -18.4297   -4.5360  -33.4567 H   0  0  0  0  0  0
  -15.4531   -5.8046  -24.9847 H   0  0  0  0  0  0
  -18.4504   -3.1072  -25.9758 H   0  0  0  0  0  0
  -22.7510   -1.8908  -29.3868 H   0  0  0  0  0  0
  -23.3246   -1.3150  -31.7041 H   0  0  0  0  0  0
  -20.8398   -6.5782  -35.4185 H   0  0  0  0  0  0
  -20.8445   -5.0910  -36.4332 H   0  0  0  0  0  0
  -20.7700   -3.6076  -34.4701 H   0  0  0  0  0  0
  -22.7242   -2.8342  -33.5486 H   0  0  0  0  0  0
  -20.9431   -5.5532  -30.7839 H   0  0  0  0  0  0
  -22.0946   -3.5677  -27.8884 H   0  0  0  0  0  0
  -21.0911   -5.7790  -26.2836 H   0  0  0  0  0  0
  -20.8688   -4.0573  -26.0572 H   0  0  0  0  0  0
  -19.1699   -7.3467  -25.9657 H   0  0  0  0  0  0
  1  3  1  0  0  0
  1  4  2  0  0  0
  2  9  1  0  0  0
  2 12  1  0  0  0
  2 23  1  0  0  0
  3 21  2  0  0  0
  3 24  1  0  0  0
  4 20  1  0  0  0
  4 25  1  0  0  0
  5  6  1  0  0  0
  5 15  2  0  0  0
  5 16  1  0  0  0
  6  7  2  0  0  0
  6 26  1  0  0  0
  7 14  1  0  0  0
  7 27  1  0  0  0
  8 13  1  0  0  0
  8 14  2  0  0  0
  8 15  1  0  0  0
  9 10  2  0  0  0
  9 11  1  0  0  0
 11 12  1  0  0  0
 11 28  1  0  0  0
 11 29  1  0  0  0
 12 13  1  0  0  0
 12 30  1  0  0  0
 14 31  1  0  0  0
 15 32  1  0  0  0
 16 17  1  0  0  0
 16 33  1  0  0  0
 17 18  2  0  0  0
 17 19  1  0  0  0
 19 20  1  0  0  0
 19 34  1  0  0  0
 19 35  1  0  0  0
 20 22  2  0  0  0
 21 22  1  0  0  0
 22 36  1  0  0  0
M  END
> <s_m_entry_id>
23

> <s_m_entry_name>
5RGU_ligand.1

> <s_m_Source_Path>
C:\Users\ifige\Documents\GitHub\WATERS\data\molecules

> <s_m_Source_File>
5RGU_ligand.sdf

> <i_m_Source_File_Index>
1

> <s_user_Name>
5RGU_ligand

$$$$
