5RGV_ligand
                    3D
 Structure written by MMmdl.
 34 36  0  0  1  0            999 V2000
  -21.9395   -4.6227  -28.1161 N   0  0  0  0  0  0
  -16.3523   -5.6457  -25.2107 C   0  0  0  0  0  0
  -17.3108   -6.6741  -25.3160 C   0  0  0  0  0  0
  -16.9975   -8.0339  -25.0839 C   0  0  0  0  0  0
  -17.9911   -9.0018  -25.1826 C   0  0  0  0  0  0
  -19.2935   -8.6461  -25.5162 C   0  0  0  0  0  0
  -18.6454   -6.2965  -25.6651 C   0  0  0  0  0  0
  -22.9743   -4.1506  -31.6029 C   0  0  0  0  0  0
  -23.1785   -6.4968  -31.0219 C   0  0  0  0  0  0
  -19.7634   -5.1104  -28.5888 O   0  0  0  0  0  0
  -20.6409   -4.7609  -27.7914 C   0  0  0  0  0  0
  -22.4283   -4.8988  -29.3880 C   0  0  0  0  0  0
  -22.7554   -6.2128  -29.7291 C   0  0  0  0  0  0
  -23.2728   -5.4634  -31.9494 C   0  0  0  0  0  0
  -22.5569   -3.8604  -30.3095 C   0  0  0  0  0  0
  -20.2945   -4.4240  -26.3370 C   0  0  0  0  0  0
  -18.9145   -4.9100  -25.8964 C   0  0  0  0  0  0
  -19.6292   -7.3182  -25.7574 C   0  0  0  0  0  0
  -16.6099   -4.3349  -25.4081 N   0  0  0  0  0  0
  -17.8733   -3.9943  -25.7467 C   0  0  0  0  0  0
  -22.6010   -4.3227  -27.4118 H   0  0  0  0  0  0
  -15.3332   -5.8951  -24.9591 H   0  0  0  0  0  0
  -15.9842   -8.3128  -24.8298 H   0  0  0  0  0  0
  -17.7480  -10.0385  -25.0019 H   0  0  0  0  0  0
  -20.0523   -9.4112  -25.5878 H   0  0  0  0  0  0
  -23.0708   -3.3646  -32.3354 H   0  0  0  0  0  0
  -23.4173   -7.5107  -31.3065 H   0  0  0  0  0  0
  -22.6596   -7.0096  -29.0071 H   0  0  0  0  0  0
  -23.5789   -5.6722  -32.9552 H   0  0  0  0  0  0
  -22.3234   -2.8434  -30.0303 H   0  0  0  0  0  0
  -21.0536   -4.7938  -25.6471 H   0  0  0  0  0  0
  -20.3322   -3.3426  -26.2724 H   0  0  0  0  0  0
  -20.6489   -7.0707  -26.0136 H   0  0  0  0  0  0
  -18.0518   -2.9445  -25.9204 H   0  0  0  0  0  0
  1 11  1  0  0  0
  1 12  1  0  0  0
  1 21  1  0  0  0
  2  3  1  0  0  0
  2 19  2  0  0  0
  2 22  1  0  0  0
  3  4  1  0  0  0
  3  7  2  0  0  0
  4  5  2  0  0  0
  4 23  1  0  0  0
  5  6  1  0  0  0
  5 24  1  0  0  0
  6 18  2  0  0  0
  6 25  1  0  0  0
  7 17  1  0  0  0
  7 18  1  0  0  0
  8 14  1  0  0  0
  8 15  2  0  0  0
  8 26  1  0  0  0
  9 13  1  0  0  0
  9 14  2  0  0  0
  9 27  1  0  0  0
 10 11  2  0  0  0
 11 16  1  0  0  0
 12 13  2  0  0  0
 12 15  1  0  0  0
 13 28  1  0  0  0
 14 29  1  0  0  0
 15 30  1  0  0  0
 16 17  1  0  0  0
 16 31  1  0  0  0
 16 32  1  0  0  0
 17 20  2  0  0  0
 18 33  1  0  0  0
 19 20  1  0  0  0
 20 34  1  0  0  0
M  END
> <s_m_entry_id>
24

> <s_m_entry_name>
5RGV_ligand.1

> <s_m_Source_Path>
C:\Users\ifige\Documents\GitHub\WATERS\data\molecules

> <s_m_Source_File>
5RGV_ligand.sdf

> <i_m_Source_File_Index>
1

> <s_user_Name>
5RGV_ligand

$$$$
