5RGW_ligand
                    3D
 Structure written by MMmdl.
 28 29  0  0  1  0            999 V2000
  -22.8090    0.2416  -30.8340 N   0  0  0  0  0  0
  -17.0281   -4.2297  -25.7828 N   0  0  0  0  0  0
  -23.0486   -3.1101  -31.9259 C   0  0  0  0  0  0
  -22.8496   -2.3623  -30.7640 C   0  0  0  0  0  0
  -22.8327   -0.9121  -30.8043 C   0  0  0  0  0  0
  -22.6244   -3.0412  -29.5648 C   0  0  0  0  0  0
  -19.0396   -5.4849  -26.2642 C   0  0  0  0  0  0
  -17.0928   -6.6173  -25.4061 C   0  0  0  0  0  0
  -23.0227   -4.4671  -31.9435 N   0  0  0  0  0  0
  -22.7843   -5.1114  -30.7729 C   0  0  0  0  0  0
  -22.5790   -4.4402  -29.5616 C   0  0  0  0  0  0
  -22.2228   -5.1982  -28.2865 C   0  0  0  0  0  0
  -20.7146   -5.1634  -27.9821 C   0  0  0  0  0  0
  -19.9029   -4.8363  -28.8538 O   0  0  0  0  0  0
  -20.3552   -5.5239  -26.7340 N   0  0  0  0  0  0
  -18.3132   -4.2882  -26.2138 C   0  0  0  0  0  0
  -16.4339   -5.3881  -25.4015 C   0  0  0  0  0  0
  -18.4212   -6.6611  -25.8320 C   0  0  0  0  0  0
  -23.2134   -2.6275  -32.8763 H   0  0  0  0  0  0
  -22.4486   -2.4956  -28.6472 H   0  0  0  0  0  0
  -16.5792   -7.5158  -25.0979 H   0  0  0  0  0  0
  -22.7387   -6.1898  -30.8252 H   0  0  0  0  0  0
  -22.5390   -6.2392  -28.3678 H   0  0  0  0  0  0
  -22.7726   -4.7636  -27.4498 H   0  0  0  0  0  0
  -21.0569   -5.8864  -26.1050 H   0  0  0  0  0  0
  -18.7538   -3.3554  -26.5352 H   0  0  0  0  0  0
  -15.3973   -5.3257  -25.1095 H   0  0  0  0  0  0
  -18.9455   -7.6051  -25.8561 H   0  0  0  0  0  0
  1  5  3  0  0  0
  2 16  1  0  0  0
  2 17  2  0  0  0
  3  4  1  0  0  0
  3  9  2  0  0  0
  3 19  1  0  0  0
  4  5  1  0  0  0
  4  6  2  0  0  0
  6 11  1  0  0  0
  6 20  1  0  0  0
  7 15  1  0  0  0
  7 16  2  0  0  0
  7 18  1  0  0  0
  8 17  1  0  0  0
  8 18  2  0  0  0
  8 21  1  0  0  0
  9 10  1  0  0  0
 10 11  2  0  0  0
 10 22  1  0  0  0
 11 12  1  0  0  0
 12 13  1  0  0  0
 12 23  1  0  0  0
 12 24  1  0  0  0
 13 14  2  0  0  0
 13 15  1  0  0  0
 15 25  1  0  0  0
 16 26  1  0  0  0
 17 27  1  0  0  0
 18 28  1  0  0  0
M  END
> <s_m_entry_id>
25

> <s_m_entry_name>
5RGW_ligand.1

> <s_m_Source_Path>
C:\Users\ifige\Documents\GitHub\WATERS\data\molecules

> <s_m_Source_File>
5RGW_ligand.sdf

> <i_m_Source_File_Index>
1

> <s_user_Name>
5RGW_ligand

$$$$
