5RGX_ligand
                    3D
 Structure written by MMmdl.
 32 33  0  0  1  0            999 V2000
  -20.5180   -5.4283  -26.6527 N   0  0  0  0  0  0
  -18.3562   -4.4275  -26.1394 C   0  0  0  0  0  0
  -19.2132   -5.5360  -26.1510 C   0  0  0  0  0  0
  -20.8057   -5.0604  -27.9166 C   0  0  0  0  0  0
  -22.2982   -5.0422  -28.2919 C   0  0  0  0  0  0
  -22.5482   -4.3079  -29.6045 C   0  0  0  0  0  0
  -22.7095   -4.3226  -32.0184 C   0  0  0  0  0  0
  -22.7691   -0.7713  -30.8110 C   0  0  0  0  0  0
  -22.7976    0.3832  -30.7934 N   0  0  0  0  0  0
  -22.7270   -2.2219  -30.8221 C   0  0  0  0  0  0
  -22.7684   -2.9289  -32.0265 C   0  0  0  0  0  0
  -22.5988   -5.0104  -30.8110 C   0  0  0  0  0  0
  -22.6213   -2.9126  -29.6146 C   0  0  0  0  0  0
  -19.9436   -4.7651  -28.7492 O   0  0  0  0  0  0
  -18.7288   -6.7625  -25.6647 C   0  0  0  0  0  0
  -19.5958   -8.0109  -25.6401 C   0  0  0  0  0  0
  -17.0726   -4.4980  -25.7101 N   0  0  0  0  0  0
  -16.6079   -5.6947  -25.2784 C   0  0  0  0  0  0
  -17.3991   -6.8406  -25.2345 C   0  0  0  0  0  0
  -21.2661   -5.7510  -26.0566 H   0  0  0  0  0  0
  -18.6858   -3.4630  -26.4995 H   0  0  0  0  0  0
  -22.8718   -4.5681  -27.4939 H   0  0  0  0  0  0
  -22.6507   -6.0718  -28.3667 H   0  0  0  0  0  0
  -22.7249   -4.8700  -32.9471 H   0  0  0  0  0  0
  -22.8328   -2.4091  -32.9708 H   0  0  0  0  0  0
  -22.5174   -6.0870  -30.8148 H   0  0  0  0  0  0
  -22.5616   -2.3739  -28.6795 H   0  0  0  0  0  0
  -19.1487   -8.8001  -25.0346 H   0  0  0  0  0  0
  -20.5803   -7.7945  -25.2253 H   0  0  0  0  0  0
  -19.7264   -8.3937  -26.6525 H   0  0  0  0  0  0
  -15.5738   -5.7284  -24.9705 H   0  0  0  0  0  0
  -16.9789   -7.7725  -24.8840 H   0  0  0  0  0  0
  1  3  1  0  0  0
  1  4  1  0  0  0
  1 20  1  0  0  0
  2  3  1  0  0  0
  2 17  2  0  0  0
  2 21  1  0  0  0
  3 15  2  0  0  0
  4  5  1  0  0  0
  4 14  2  0  0  0
  5  6  1  0  0  0
  5 22  1  0  0  0
  5 23  1  0  0  0
  6 12  1  0  0  0
  6 13  2  0  0  0
  7 11  1  0  0  0
  7 12  2  0  0  0
  7 24  1  0  0  0
  8  9  3  0  0  0
  8 10  1  0  0  0
 10 11  2  0  0  0
 10 13  1  0  0  0
 11 25  1  0  0  0
 12 26  1  0  0  0
 13 27  1  0  0  0
 15 16  1  0  0  0
 15 19  1  0  0  0
 16 28  1  0  0  0
 16 29  1  0  0  0
 16 30  1  0  0  0
 17 18  1  0  0  0
 18 19  2  0  0  0
 18 31  1  0  0  0
 19 32  1  0  0  0
M  END
> <s_m_entry_id>
26

> <s_m_entry_name>
5RGX_ligand.1

> <s_m_Source_Path>
C:\Users\ifige\Documents\GitHub\WATERS\data\molecules

> <s_m_Source_File>
5RGX_ligand.sdf

> <i_m_Source_File_Index>
1

> <s_user_Name>
5RGX_ligand

$$$$
