5RGY_ligand
                    3D
 Structure written by MMmdl.
 38 40  0  0  1  0            999 V2000
  -19.9693   -5.6005  -31.6742 N   0  0  0  0  0  0
  -20.5951   -5.2093  -30.4852 C   0  0  0  0  0  0
  -20.4578   -6.3928  -32.6478 C   0  0  0  0  0  0
  -19.6518   -6.4288  -33.9550 C   0  0  0  0  0  0
  -19.0406   -7.7998  -34.2174 C   0  0  0  0  0  0
  -17.9192   -8.2175  -33.5002 C   0  0  0  0  0  0
  -17.9022  -10.3391  -34.6959 C   0  0  0  0  0  0
  -19.0082  -12.0222  -36.6647 C   0  0  0  0  0  0
  -19.0465   -9.9160  -35.4393 C   0  0  0  0  0  0
  -21.9868   -5.0755  -30.3535 C   0  0  0  0  0  0
  -21.4831   -7.0645  -32.5413 O   0  0  0  0  0  0
  -19.7435   -4.9038  -29.4758 N   0  0  0  0  0  0
  -20.2652   -4.4556  -28.3070 C   0  0  0  0  0  0
  -21.6346   -4.2905  -28.1039 C   0  0  0  0  0  0
  -22.5195   -4.6071  -29.1492 C   0  0  0  0  0  0
  -23.8926   -4.4854  -29.0761 O   0  0  0  0  0  0
  -24.4662   -3.8459  -27.9413 C   0  0  0  0  0  0
  -19.6104   -8.6454  -35.1707 C   0  0  0  0  0  0
  -17.3597   -9.4727  -33.7162 C   0  0  0  0  0  0
  -19.5871  -10.7784  -36.4256 C   0  0  0  0  0  0
  -17.8956  -12.4361  -35.9383 C   0  0  0  0  0  0
  -17.3399  -11.6125  -34.9619 C   0  0  0  0  0  0
  -19.0586   -5.1881  -31.8290 H   0  0  0  0  0  0
  -18.8572   -5.6808  -33.9473 H   0  0  0  0  0  0
  -20.3180   -6.1445  -34.7710 H   0  0  0  0  0  0
  -17.4770   -7.5705  -32.7574 H   0  0  0  0  0  0
  -19.4255  -12.6722  -37.4202 H   0  0  0  0  0  0
  -22.6537   -5.2948  -31.1743 H   0  0  0  0  0  0
  -19.5597   -4.2187  -27.5232 H   0  0  0  0  0  0
  -21.9851   -3.9256  -27.1502 H   0  0  0  0  0  0
  -25.5401   -3.7355  -28.0892 H   0  0  0  0  0  0
  -24.3144   -4.4302  -27.0328 H   0  0  0  0  0  0
  -24.0524   -2.8472  -27.7998 H   0  0  0  0  0  0
  -20.4880   -8.3351  -35.7179 H   0  0  0  0  0  0
  -16.5011   -9.7860  -33.1401 H   0  0  0  0  0  0
  -20.4505  -10.4635  -36.9948 H   0  0  0  0  0  0
  -17.4588  -13.4044  -36.1350 H   0  0  0  0  0  0
  -16.4734  -11.9400  -34.4050 H   0  0  0  0  0  0
  1  2  1  0  0  0
  1  3  1  0  0  0
  1 23  1  0  0  0
  2 10  1  0  0  0
  2 12  2  0  0  0
  3  4  1  0  0  0
  3 11  2  0  0  0
  4  5  1  0  0  0
  4 24  1  0  0  0
  4 25  1  0  0  0
  5  6  1  0  0  0
  5 18  2  0  0  0
  6 19  2  0  0  0
  6 26  1  0  0  0
  7  9  1  0  0  0
  7 19  1  0  0  0
  7 22  2  0  0  0
  8 20  1  0  0  0
  8 21  2  0  0  0
  8 27  1  0  0  0
  9 18  1  0  0  0
  9 20  2  0  0  0
 10 15  2  0  0  0
 10 28  1  0  0  0
 12 13  1  0  0  0
 13 14  2  0  0  0
 13 29  1  0  0  0
 14 15  1  0  0  0
 14 30  1  0  0  0
 15 16  1  0  0  0
 16 17  1  0  0  0
 17 31  1  0  0  0
 17 32  1  0  0  0
 17 33  1  0  0  0
 18 34  1  0  0  0
 19 35  1  0  0  0
 20 36  1  0  0  0
 21 22  1  0  0  0
 21 37  1  0  0  0
 22 38  1  0  0  0
M  END
> <s_m_entry_id>
27

> <s_m_entry_name>
5RGY_ligand.1

> <s_m_Source_Path>
C:\Users\ifige\Documents\GitHub\WATERS\data\molecules

> <s_m_Source_File>
5RGY_ligand.sdf

> <i_m_Source_File_Index>
1

> <s_user_Name>
5RGY_ligand

$$$$
