5RGZ_ligand
                    3D
 Structure written by MMmdl.
 29 30  0  0  1  0            999 V2000
  -20.3779   -5.4750  -26.6495 N   0  0  0  0  0  0
  -23.0992   -4.4690  -31.8343 C   0  0  0  0  0  0
  -23.1032   -3.0771  -31.8948 C   0  0  0  0  0  0
  -22.8718   -2.3306  -30.7379 C   0  0  0  0  0  0
  -22.8255   -0.8814  -30.7949 C   0  0  0  0  0  0
  -22.6471   -2.9801  -29.5226 C   0  0  0  0  0  0
  -18.4626   -6.6644  -25.7836 C   0  0  0  0  0  0
  -18.2962   -4.2935  -26.1463 C   0  0  0  0  0  0
  -22.7804    0.2701  -30.8348 N   0  0  0  0  0  0
  -22.8588   -5.1175  -30.6234 C   0  0  0  0  0  0
  -22.6287   -4.3756  -29.4625 C   0  0  0  0  0  0
  -22.2681   -5.0772  -28.1563 C   0  0  0  0  0  0
  -20.7537   -5.0701  -27.8789 C   0  0  0  0  0  0
  -19.9525   -4.7186  -28.7503 O   0  0  0  0  0  0
  -19.0550   -5.4699  -26.1981 C   0  0  0  0  0  0
  -17.0053   -4.2721  -25.7267 N   0  0  0  0  0  0
  -16.4411   -5.4474  -25.3525 C   0  0  0  0  0  0
  -17.1332   -6.6577  -25.3603 C   0  0  0  0  0  0
  -21.0727   -5.8617  -26.0271 H   0  0  0  0  0  0
  -23.2594   -5.0497  -32.7270 H   0  0  0  0  0  0
  -23.2714   -2.5897  -32.8436 H   0  0  0  0  0  0
  -22.4529   -2.4103  -28.6246 H   0  0  0  0  0  0
  -19.0081   -7.5948  -25.8181 H   0  0  0  0  0  0
  -18.7160   -3.3475  -26.4561 H   0  0  0  0  0  0
  -22.8280   -6.1955  -30.5923 H   0  0  0  0  0  0
  -22.6171   -6.1101  -28.1765 H   0  0  0  0  0  0
  -22.7874   -4.5858  -27.3323 H   0  0  0  0  0  0
  -15.4043   -5.4130  -25.0585 H   0  0  0  0  0  0
  -16.6443   -7.5737  -25.0641 H   0  0  0  0  0  0
  1 13  1  0  0  0
  1 15  1  0  0  0
  1 19  1  0  0  0
  2  3  1  0  0  0
  2 10  2  0  0  0
  2 20  1  0  0  0
  3  4  2  0  0  0
  3 21  1  0  0  0
  4  5  1  0  0  0
  4  6  1  0  0  0
  5  9  3  0  0  0
  6 11  2  0  0  0
  6 22  1  0  0  0
  7 15  1  0  0  0
  7 18  2  0  0  0
  7 23  1  0  0  0
  8 15  2  0  0  0
  8 16  1  0  0  0
  8 24  1  0  0  0
 10 11  1  0  0  0
 10 25  1  0  0  0
 11 12  1  0  0  0
 12 13  1  0  0  0
 12 26  1  0  0  0
 12 27  1  0  0  0
 13 14  2  0  0  0
 16 17  2  0  0  0
 17 18  1  0  0  0
 17 28  1  0  0  0
 18 29  1  0  0  0
M  END
> <s_m_entry_id>
28

> <s_m_entry_name>
5RGZ_ligand.1

> <s_m_Source_Path>
C:\Users\ifige\Documents\GitHub\WATERS\data\molecules

> <s_m_Source_File>
5RGZ_ligand.sdf

> <i_m_Source_File_Index>
1

> <s_user_Name>
5RGZ_ligand

$$$$
