5RH0_ligand
                    3D
 Structure written by MMmdl.
 27 28  0  0  1  0            999 V2000
  -20.2285   -4.9802  -26.2776 N   0  0  0  0  0  0
  -22.0703   -3.9382  -29.1208 C   0  0  0  0  0  0
  -20.4555   -4.8653  -27.5988 C   0  0  0  0  0  0
  -18.9554   -5.2817  -25.7977 C   0  0  0  0  0  0
  -18.5154   -6.6072  -25.7149 C   0  0  0  0  0  0
  -17.1813   -6.8580  -25.3946 C   0  0  0  0  0  0
  -18.0561   -4.2505  -25.5158 C   0  0  0  0  0  0
  -19.6091   -5.1460  -28.4549 O   0  0  0  0  0  0
  -21.6765   -4.3606  -27.8633 N   0  0  0  0  0  0
  -22.7968   -2.7995  -29.4125 C   0  0  0  0  0  0
  -22.9303   -2.5906  -30.7854 C   0  0  0  0  0  0
  -21.7182   -4.8461  -30.5677 S   0  0  0  0  0  0
  -22.3770   -3.5982  -31.5727 C   0  0  0  0  0  0
  -22.2990   -3.7144  -33.0644 C   0  0  0  0  0  0
  -16.7546   -4.4793  -25.2112 N   0  0  0  0  0  0
  -16.3355   -5.7708  -25.1681 C   0  0  0  0  0  0
  -20.9461   -4.7378  -25.6111 H   0  0  0  0  0  0
  -19.1794   -7.4282  -25.9455 H   0  0  0  0  0  0
  -16.7999   -7.8684  -25.3610 H   0  0  0  0  0  0
  -18.3629   -3.2174  -25.5868 H   0  0  0  0  0  0
  -22.2346   -4.0462  -27.0844 H   0  0  0  0  0  0
  -23.1577   -2.1082  -28.6670 H   0  0  0  0  0  0
  -23.4083   -1.7145  -31.1975 H   0  0  0  0  0  0
  -21.2871   -3.9287  -33.4067 H   0  0  0  0  0  0
  -22.9364   -4.5238  -33.4124 H   0  0  0  0  0  0
  -22.6161   -2.7945  -33.5527 H   0  0  0  0  0  0
  -15.2884   -5.9323  -24.9663 H   0  0  0  0  0  0
  1  3  1  0  0  0
  1  4  1  0  0  0
  1 17  1  0  0  0
  2  9  1  0  0  0
  2 10  2  0  0  0
  2 12  1  0  0  0
  3  8  2  0  0  0
  3  9  1  0  0  0
  4  5  1  0  0  0
  4  7  2  0  0  0
  5  6  2  0  0  0
  5 18  1  0  0  0
  6 16  1  0  0  0
  6 19  1  0  0  0
  7 15  1  0  0  0
  7 20  1  0  0  0
  9 21  1  0  0  0
 10 11  1  0  0  0
 10 22  1  0  0  0
 11 13  2  0  0  0
 11 23  1  0  0  0
 12 13  1  0  0  0
 13 14  1  0  0  0
 14 24  1  0  0  0
 14 25  1  0  0  0
 14 26  1  0  0  0
 15 16  2  0  0  0
 16 27  1  0  0  0
M  END
> <s_m_entry_id>
29

> <s_m_entry_name>
5RH0_ligand.1

> <s_m_Source_Path>
C:\Users\ifige\Documents\GitHub\WATERS\data\molecules

> <s_m_Source_File>
5RH0_ligand.sdf

> <i_m_Source_File_Index>
1

> <s_user_Name>
5RH0_ligand

$$$$
