5RH1_ligand
                    3D
 Structure written by MMmdl.
 25 26  0  0  1  0            999 V2000
  -16.7718   -4.3267  -25.5736 N   0  0  0  0  0  0
  -22.2900   -4.8167  -27.4676 C   0  0  0  0  0  0
  -20.7645   -4.9179  -27.2969 C   0  0  0  0  0  0
  -18.9595   -5.3350  -25.7715 C   0  0  0  0  0  0
  -18.4166   -6.5989  -25.5243 C   0  0  0  0  0  0
  -17.0407   -6.7199  -25.3265 C   0  0  0  0  0  0
  -18.1086   -4.2244  -25.7787 C   0  0  0  0  0  0
  -20.0086   -4.7589  -28.2623 O   0  0  0  0  0  0
  -22.6861   -4.6435  -28.9201 C   0  0  0  0  0  0
  -23.0742   -5.6043  -29.8545 C   0  0  0  0  0  0
  -23.1706   -5.1195  -31.1608 C   0  0  0  0  0  0
  -22.5669   -3.0859  -29.6903 S   0  0  0  0  0  0
  -22.8813   -3.7707  -31.2428 C   0  0  0  0  0  0
  -22.8059   -2.7833  -32.6369 Cl  0  0  0  0  0  0
  -20.3173   -5.2029  -26.0600 N   0  0  0  0  0  0
  -16.2579   -5.5654  -25.3595 C   0  0  0  0  0  0
  -22.6522   -3.9841  -26.8619 H   0  0  0  0  0  0
  -22.7389   -5.7197  -27.0522 H   0  0  0  0  0  0
  -19.0399   -7.4814  -25.5234 H   0  0  0  0  0  0
  -16.5866   -7.6876  -25.1685 H   0  0  0  0  0  0
  -18.4931   -3.2338  -25.9750 H   0  0  0  0  0  0
  -23.2206   -6.6449  -29.6023 H   0  0  0  0  0  0
  -23.4073   -5.7344  -32.0147 H   0  0  0  0  0  0
  -20.9782   -5.4303  -25.3301 H   0  0  0  0  0  0
  -15.1870   -5.6305  -25.2405 H   0  0  0  0  0  0
  1  7  1  0  0  0
  1 16  2  0  0  0
  2  3  1  0  0  0
  2  9  1  0  0  0
  2 17  1  0  0  0
  2 18  1  0  0  0
  3  8  2  0  0  0
  3 15  1  0  0  0
  4  5  1  0  0  0
  4  7  2  0  0  0
  4 15  1  0  0  0
  5  6  2  0  0  0
  5 19  1  0  0  0
  6 16  1  0  0  0
  6 20  1  0  0  0
  7 21  1  0  0  0
  9 10  2  0  0  0
  9 12  1  0  0  0
 10 11  1  0  0  0
 10 22  1  0  0  0
 11 13  2  0  0  0
 11 23  1  0  0  0
 12 13  1  0  0  0
 13 14  1  0  0  0
 15 24  1  0  0  0
 16 25  1  0  0  0
M  END
> <s_m_entry_id>
30

> <s_m_entry_name>
5RH1_ligand.1

> <s_m_Source_Path>
C:\Users\ifige\Documents\GitHub\WATERS\data\molecules

> <s_m_Source_File>
5RH1_ligand.sdf

> <i_m_Source_File_Index>
1

> <s_user_Name>
5RH1_ligand

$$$$
