5RH2_ligand
                    3D
 Structure written by MMmdl.
 31 32  0  0  1  0            999 V2000
  -20.4723   -5.0136  -26.4126 N   0  0  0  0  0  0
  -18.2542   -4.1528  -25.9690 C   0  0  0  0  0  0
  -19.1559   -5.2223  -25.9915 C   0  0  0  0  0  0
  -20.8096   -4.8663  -27.7071 C   0  0  0  0  0  0
  -22.3115   -4.6920  -27.9914 C   0  0  0  0  0  0
  -22.5736   -4.0824  -29.3609 C   0  0  0  0  0  0
  -22.7484   -4.3008  -31.7634 C   0  0  0  0  0  0
  -22.6795   -2.6955  -29.4870 C   0  0  0  0  0  0
  -22.8919   -0.3942  -30.8730 Cl  0  0  0  0  0  0
  -22.7988   -2.1101  -30.7432 C   0  0  0  0  0  0
  -22.8283   -2.9126  -31.8829 C   0  0  0  0  0  0
  -22.6212   -4.8863  -30.5046 C   0  0  0  0  0  0
  -19.9860   -4.8813  -28.6288 O   0  0  0  0  0  0
  -18.7012   -6.4976  -25.6142 C   0  0  0  0  0  0
  -19.6341   -7.6971  -25.5729 C   0  0  0  0  0  0
  -16.9518   -4.2974  -25.6203 N   0  0  0  0  0  0
  -16.5160   -5.5425  -25.3048 C   0  0  0  0  0  0
  -17.3504   -6.6595  -25.2895 C   0  0  0  0  0  0
  -21.2009   -5.0355  -25.7114 H   0  0  0  0  0  0
  -18.5684   -3.1579  -26.2524 H   0  0  0  0  0  0
  -22.7589   -4.0582  -27.2240 H   0  0  0  0  0  0
  -22.7988   -5.6646  -27.9197 H   0  0  0  0  0  0
  -22.7615   -4.9220  -32.6452 H   0  0  0  0  0  0
  -22.6443   -2.0698  -28.6097 H   0  0  0  0  0  0
  -22.9049   -2.4598  -32.8577 H   0  0  0  0  0  0
  -22.5263   -5.9600  -30.4198 H   0  0  0  0  0  0
  -19.1483   -8.5685  -25.1330 H   0  0  0  0  0  0
  -20.5197   -7.4749  -24.9774 H   0  0  0  0  0  0
  -19.9567   -7.9595  -26.5792 H   0  0  0  0  0  0
  -15.4655   -5.6429  -25.0803 H   0  0  0  0  0  0
  -16.9498   -7.6291  -25.0283 H   0  0  0  0  0  0
  1  3  1  0  0  0
  1  4  1  0  0  0
  1 19  1  0  0  0
  2  3  1  0  0  0
  2 16  2  0  0  0
  2 20  1  0  0  0
  3 14  2  0  0  0
  4  5  1  0  0  0
  4 13  2  0  0  0
  5  6  1  0  0  0
  5 21  1  0  0  0
  5 22  1  0  0  0
  6  8  1  0  0  0
  6 12  2  0  0  0
  7 11  2  0  0  0
  7 12  1  0  0  0
  7 23  1  0  0  0
  8 10  2  0  0  0
  8 24  1  0  0  0
  9 10  1  0  0  0
 10 11  1  0  0  0
 11 25  1  0  0  0
 12 26  1  0  0  0
 14 15  1  0  0  0
 14 18  1  0  0  0
 15 27  1  0  0  0
 15 28  1  0  0  0
 15 29  1  0  0  0
 16 17  1  0  0  0
 17 18  2  0  0  0
 17 30  1  0  0  0
 18 31  1  0  0  0
M  END
> <s_m_entry_id>
31

> <s_m_entry_name>
5RH2_ligand.1

> <s_m_Source_Path>
C:\Users\ifige\Documents\GitHub\WATERS\data\molecules

> <s_m_Source_File>
5RH2_ligand.sdf

> <i_m_Source_File_Index>
1

> <s_user_Name>
5RH2_ligand

$$$$
