5RH3_ligand
                    3D
 Structure written by MMmdl.
 34 35  0  0  1  0            999 V2000
  -16.9171   -4.2755  -25.4892 N   0  0  0  0  0  0
  -18.2197   -4.1095  -25.8296 C   0  0  0  0  0  0
  -16.4715   -5.5396  -25.2889 C   0  0  0  0  0  0
  -17.2946   -6.6599  -25.3941 C   0  0  0  0  0  0
  -18.6397   -6.4836  -25.7311 C   0  0  0  0  0  0
  -19.5516   -7.6960  -25.8447 C   0  0  0  0  0  0
  -22.5695   -4.9301  -30.4828 C   0  0  0  0  0  0
  -22.7961   -2.1600  -30.6816 C   0  0  0  0  0  0
  -22.9098   -0.4453  -30.7959 Cl  0  0  0  0  0  0
  -22.8022   -2.9445  -31.8342 C   0  0  0  0  0  0
  -22.6961   -4.3305  -31.7349 C   0  0  0  0  0  0
  -22.6846   -2.7621  -29.4309 C   0  0  0  0  0  0
  -22.5587   -4.1493  -29.3172 C   0  0  0  0  0  0
  -22.3082   -4.7692  -27.9365 C   0  0  1  0  0  0
  -23.0639   -6.1004  -27.7167 C   0  0  0  0  0  0
  -20.7956   -4.9377  -27.6709 C   0  0  0  0  0  0
  -19.9992   -5.0776  -28.6060 O   0  0  0  0  0  0
  -20.4185   -4.9329  -26.3772 N   0  0  0  0  0  0
  -19.1057   -5.1799  -25.9724 C   0  0  0  0  0  0
  -18.5458   -3.0955  -26.0093 H   0  0  0  0  0  0
  -15.4235   -5.6517  -25.0583 H   0  0  0  0  0  0
  -16.8911   -7.6451  -25.2230 H   0  0  0  0  0  0
  -20.4435   -7.5601  -25.2353 H   0  0  0  0  0  0
  -19.8652   -7.8388  -26.8794 H   0  0  0  0  0  0
  -19.0576   -8.6094  -25.5128 H   0  0  0  0  0  0
  -22.4440   -6.0005  -30.4272 H   0  0  0  0  0  0
  -22.8759   -2.4797  -32.8041 H   0  0  0  0  0  0
  -22.6843   -4.9393  -32.6263 H   0  0  0  0  0  0
  -22.6696   -2.1461  -28.5455 H   0  0  0  0  0  0
  -22.6972   -4.0719  -27.1907 H   0  0  0  0  0  0
  -22.9750   -6.4434  -26.6842 H   0  0  0  0  0  0
  -24.1283   -5.9859  -27.9251 H   0  0  0  0  0  0
  -22.6883   -6.9026  -28.3536 H   0  0  0  0  0  0
  -21.1143   -4.8092  -25.6538 H   0  0  0  0  0  0
  1  2  1  0  0  0
  1  3  2  0  0  0
  2 19  2  0  0  0
  2 20  1  0  0  0
  3  4  1  0  0  0
  3 21  1  0  0  0
  4  5  2  0  0  0
  4 22  1  0  0  0
  5  6  1  0  0  0
  5 19  1  0  0  0
  6 23  1  0  0  0
  6 24  1  0  0  0
  6 25  1  0  0  0
  7 11  1  0  0  0
  7 13  2  0  0  0
  7 26  1  0  0  0
  8  9  1  0  0  0
  8 10  1  0  0  0
  8 12  2  0  0  0
 10 11  2  0  0  0
 10 27  1  0  0  0
 11 28  1  0  0  0
 12 13  1  0  0  0
 12 29  1  0  0  0
 13 14  1  0  0  0
 14 15  1  0  0  0
 14 16  1  0  0  0
 14 30  1  0  0  0
 15 31  1  0  0  0
 15 32  1  0  0  0
 15 33  1  0  0  0
 16 17  2  0  0  0
 16 18  1  0  0  0
 18 19  1  0  0  0
 18 34  1  0  0  0
M  END
> <s_m_entry_id>
32

> <s_m_entry_name>
5RH3_ligand.1

> <s_m_Source_Path>
C:\Users\ifige\Documents\GitHub\WATERS\data\molecules

> <s_m_Source_File>
5RH3_ligand.sdf

> <i_m_Source_File_Index>
1

> <s_user_Name>
5RH3_ligand

$$$$
