5RH8_ligand
                    3D
 Structure written by MMmdl.
 30 31  0  0  1  0            999 V2000
  -23.5972   -2.5190  -31.0706 N   0  0  0  0  0  0
  -23.6235   -4.6658  -29.7981 C   0  0  0  0  0  0
  -19.6275   -5.1717  -26.1059 C   0  0  0  0  0  0
  -18.6328   -4.5365  -25.3518 C   0  0  0  0  0  0
  -17.3550   -5.0868  -25.2570 C   0  0  0  0  0  0
  -17.0686   -6.2960  -25.8812 C   0  0  0  0  0  0
  -19.3207   -6.3727  -26.7756 C   0  0  0  0  0  0
  -18.3522   -8.3752  -30.0370 N   0  0  0  0  0  0
  -19.1664   -7.7220  -29.5379 C   0  0  0  0  0  0
  -20.2054   -6.8914  -28.9069 C   0  0  0  0  0  0
  -20.2813   -7.0452  -27.4936 O   0  0  0  0  0  0
  -18.0465   -6.9347  -26.6395 C   0  0  0  0  0  0
  -21.0129   -4.5839  -26.1274 C   0  0  0  0  0  0
  -21.6099   -4.3750  -25.0699 O   0  0  0  0  0  0
  -21.5120   -4.2878  -27.3421 N   0  0  0  0  0  0
  -22.8187   -3.6658  -27.5510 C   0  0  0  0  0  0
  -23.1925   -3.6047  -29.0181 C   0  0  0  0  0  0
  -24.0067   -4.1395  -31.4026 S   0  0  0  0  0  0
  -23.2193   -2.4498  -29.8139 C   0  0  0  0  0  0
  -23.7359   -5.7016  -29.5130 H   0  0  0  0  0  0
  -18.8452   -3.6178  -24.8227 H   0  0  0  0  0  0
  -16.5919   -4.5992  -24.6704 H   0  0  0  0  0  0
  -16.0889   -6.7391  -25.7768 H   0  0  0  0  0  0
  -21.1686   -7.1618  -29.3387 H   0  0  0  0  0  0
  -20.0184   -5.8518  -29.1821 H   0  0  0  0  0  0
  -17.8124   -7.8769  -27.1137 H   0  0  0  0  0  0
  -20.8580   -4.2066  -28.1051 H   0  0  0  0  0  0
  -22.7819   -2.6618  -27.1292 H   0  0  0  0  0  0
  -23.5817   -4.2003  -26.9811 H   0  0  0  0  0  0
  -22.9473   -1.4732  -29.4475 H   0  0  0  0  0  0
  1 18  1  0  0  0
  1 19  2  0  0  0
  2 17  2  0  0  0
  2 18  1  0  0  0
  2 20  1  0  0  0
  3  4  1  0  0  0
  3  7  2  0  0  0
  3 13  1  0  0  0
  4  5  2  0  0  0
  4 21  1  0  0  0
  5  6  1  0  0  0
  5 22  1  0  0  0
  6 12  2  0  0  0
  6 23  1  0  0  0
  7 11  1  0  0  0
  7 12  1  0  0  0
  8  9  3  0  0  0
  9 10  1  0  0  0
 10 11  1  0  0  0
 10 24  1  0  0  0
 10 25  1  0  0  0
 12 26  1  0  0  0
 13 14  2  0  0  0
 13 15  1  0  0  0
 15 16  1  0  0  0
 15 27  1  0  0  0
 16 17  1  0  0  0
 16 28  1  0  0  0
 16 29  1  0  0  0
 17 19  1  0  0  0
 19 30  1  0  0  0
M  END
> <s_m_entry_id>
33

> <s_m_entry_name>
5RH8_ligand.1

> <s_m_Source_Path>
C:\Users\ifige\Documents\GitHub\WATERS\data\molecules

> <s_m_Source_File>
5RH8_ligand.sdf

> <i_m_Source_File_Index>
1

> <s_user_Name>
5RH8_ligand

$$$$
