5RHD_ligand
                    3D
 Structure written by MMmdl.
 33 34  0  0  1  0            999 V2000
  -27.8731   -3.7059  -25.6312 N   0  3  0  0  0  0
  -24.4473   -4.7642  -28.0736 C   0  0  0  0  0  0
  -24.3147   -6.0059  -28.7179 C   0  0  0  0  0  0
  -23.1650   -6.3307  -29.4274 C   0  0  0  0  0  0
  -26.0537   -3.0534  -27.1787 C   0  0  0  0  0  0
  -26.6386   -2.8101  -25.7832 C   0  0  0  0  0  0
  -26.7576   -5.3489  -27.1903 C   0  0  0  0  0  0
  -20.0333   -6.9710  -29.6945 O   0  0  0  0  0  0
  -20.6376   -5.8418  -30.4087 S   0  0  0  0  0  0
  -19.8850   -4.6025  -30.6177 O   0  0  0  0  0  0
  -21.2413   -6.4499  -32.0859 C   0  0  0  0  0  0
  -22.1260   -5.4097  -29.5214 C   0  0  0  0  0  0
  -23.3733   -3.8603  -28.1682 C   0  0  0  0  0  0
  -22.2295   -4.1709  -28.8936 C   0  0  0  0  0  0
  -25.5945   -4.4452  -27.3362 N   0  0  0  0  0  0
  -27.5197   -5.1801  -25.8584 C   0  0  0  0  0  0
  -28.5750   -3.4218  -26.3036 H   0  0  0  0  0  0
  -28.2938   -3.5879  -24.7176 H   0  0  0  0  0  0
  -25.0943   -6.7492  -28.6894 H   0  0  0  0  0  0
  -23.0830   -7.3000  -29.8950 H   0  0  0  0  0  0
  -25.2586   -2.3302  -27.3244 H   0  0  0  0  0  0
  -26.7930   -2.8225  -27.9482 H   0  0  0  0  0  0
  -25.9476   -3.0634  -24.9769 H   0  0  0  0  0  0
  -26.9707   -1.7839  -25.6462 H   0  0  0  0  0  0
  -26.4444   -6.3908  -27.2104 H   0  0  0  0  0  0
  -27.4417   -5.2169  -28.0297 H   0  0  0  0  0  0
  -21.8793   -5.6915  -32.5340 H   0  0  0  0  0  0
  -20.3751   -6.6329  -32.7194 H   0  0  0  0  0  0
  -21.7952   -7.3752  -31.9461 H   0  0  0  0  0  0
  -23.3793   -2.9063  -27.6670 H   0  0  0  0  0  0
  -21.4219   -3.4540  -28.9435 H   0  0  0  0  0  0
  -28.4592   -5.7336  -25.8386 H   0  0  0  0  0  0
  -26.9195   -5.4836  -24.9996 H   0  0  0  0  0  0
  1  6  1  0  0  0
  1 16  1  0  0  0
  1 17  1  0  0  0
  1 18  1  0  0  0
  2  3  1  0  0  0
  2 13  2  0  0  0
  2 15  1  0  0  0
  3  4  2  0  0  0
  3 19  1  0  0  0
  4 12  1  0  0  0
  4 20  1  0  0  0
  5  6  1  0  0  0
  5 15  1  0  0  0
  5 21  1  0  0  0
  5 22  1  0  0  0
  6 23  1  0  0  0
  6 24  1  0  0  0
  7 15  1  0  0  0
  7 16  1  0  0  0
  7 25  1  0  0  0
  7 26  1  0  0  0
  8  9  2  0  0  0
  9 10  2  0  0  0
  9 11  1  0  0  0
  9 12  1  0  0  0
 11 27  1  0  0  0
 11 28  1  0  0  0
 11 29  1  0  0  0
 12 14  2  0  0  0
 13 14  1  0  0  0
 13 30  1  0  0  0
 14 31  1  0  0  0
 16 32  1  0  0  0
 16 33  1  0  0  0
M  CHG  1   1   1
M  END
> <s_m_entry_id>
34

> <s_m_entry_name>
5RHD_ligand.1

> <s_m_Source_Path>
C:\Users\ifige\Documents\GitHub\WATERS\data\molecules

> <s_m_Source_File>
5RHD_ligand.sdf

> <i_m_Source_File_Index>
1

> <s_user_Name>
5RHD_ligand

$$$$
