7L14_ligand
                    3D
 Structure written by MMmdl.
 53 57  0  0  1  0            999 V2000
  -24.3003   -4.6153  -25.0991 C   0  0  0  0  0  0
  -18.5173   -4.1067  -25.9422 C   0  0  0  0  0  0
  -16.9972   -5.6218  -25.0481 C   0  0  0  0  0  0
  -20.7844   -4.7860  -26.5560 N   0  0  0  0  0  0
  -19.5131   -5.0886  -26.0267 C   0  0  0  0  0  0
  -23.5109   -2.8189  -30.0346 C   0  0  0  0  0  0
  -23.8420   -2.4688  -31.3393 C   0  0  0  0  0  0
  -23.2409   -3.1259  -32.4033 C   0  0  0  0  0  0
  -22.3058   -4.1321  -32.1835 C   0  0  0  0  0  0
  -20.6324   -5.5565  -33.2038 C   0  0  0  0  0  0
  -20.3107   -6.0366  -34.6269 C   0  0  0  0  0  0
  -21.9913   -4.4914  -30.8635 C   0  0  0  0  0  0
  -21.8621   -4.7903  -25.6972 C   0  0  0  0  0  0
  -25.4049   -4.3371  -22.9386 C   0  0  0  0  0  0
  -26.5497   -4.9574  -23.4269 C   0  0  0  0  0  0
  -22.5849   -3.8399  -29.7667 C   0  0  0  0  0  0
  -22.3079   -4.2398  -28.3509 C   0  0  0  0  0  0
  -26.5978   -5.3735  -24.7515 C   0  0  0  0  0  0
  -25.4870   -5.2023  -25.5739 C   0  0  0  0  0  0
  -23.3347   -4.2382  -27.4561 C   0  0  0  0  0  0
  -20.9344   -4.5720  -27.9127 C   0  0  0  0  0  0
  -24.2867   -4.1503  -23.7606 C   0  0  0  0  0  0
  -23.1678   -3.4095  -23.1929 C   0  0  0  0  0  0
  -19.7062   -5.0387  -35.5830 C   0  0  0  0  0  0
  -18.8682   -6.1784  -35.0448 C   0  0  0  0  0  0
  -17.9291   -6.6591  -25.0987 C   0  0  0  0  0  0
  -19.2070   -6.3840  -25.5872 C   0  0  0  0  0  0
  -23.1447   -4.5413  -26.0440 C   0  0  0  0  0  0
  -17.2760   -4.3570  -25.4529 N   0  0  0  0  0  0
  -22.2777   -2.8228  -22.7469 N   0  0  0  0  0  0
  -19.9853   -4.6606  -28.6976 O   0  0  0  0  0  0
  -21.7751   -4.7192  -33.3114 O   0  0  0  0  0  0
  -25.0032   -1.2338  -31.6405 Cl  0  0  0  0  0  0
  -18.7041   -3.0980  -26.2788 H   0  0  0  0  0  0
  -15.9984   -5.7978  -24.6754 H   0  0  0  0  0  0
  -23.9883   -2.2847  -29.2255 H   0  0  0  0  0  0
  -23.4899   -2.8425  -33.4109 H   0  0  0  0  0  0
  -19.8011   -4.9947  -32.7720 H   0  0  0  0  0  0
  -20.8313   -6.4190  -32.5666 H   0  0  0  0  0  0
  -21.0449   -6.7349  -35.0302 H   0  0  0  0  0  0
  -21.2986   -5.2986  -30.6854 H   0  0  0  0  0  0
  -21.5761   -5.0556  -24.6877 H   0  0  0  0  0  0
  -25.4021   -3.9950  -21.9124 H   0  0  0  0  0  0
  -27.4064   -5.0956  -22.7851 H   0  0  0  0  0  0
  -27.4902   -5.8421  -25.1392 H   0  0  0  0  0  0
  -25.5492   -5.5649  -26.5902 H   0  0  0  0  0  0
  -24.3285   -3.9729  -27.7839 H   0  0  0  0  0  0
  -19.4980   -4.0251  -35.2357 H   0  0  0  0  0  0
  -20.0381   -5.0651  -36.6189 H   0  0  0  0  0  0
  -18.5920   -6.9876  -35.7224 H   0  0  0  0  0  0
  -18.0908   -5.9568  -34.3166 H   0  0  0  0  0  0
  -17.6684   -7.6514  -24.7651 H   0  0  0  0  0  0
  -19.9442   -7.1730  -25.6392 H   0  0  0  0  0  0
  1 19  1  0  0  0
  1 22  2  0  0  0
  1 28  1  0  0  0
  2  5  1  0  0  0
  2 29  2  0  0  0
  2 34  1  0  0  0
  3 26  2  0  0  0
  3 29  1  0  0  0
  3 35  1  0  0  0
  4  5  1  0  0  0
  4 13  1  0  0  0
  4 21  1  0  0  0
  5 27  2  0  0  0
  6  7  1  0  0  0
  6 16  2  0  0  0
  6 36  1  0  0  0
  7  8  2  0  0  0
  7 33  1  0  0  0
  8  9  1  0  0  0
  8 37  1  0  0  0
  9 12  2  0  0  0
  9 32  1  0  0  0
 10 11  1  0  0  0
 10 32  1  0  0  0
 10 38  1  0  0  0
 10 39  1  0  0  0
 11 24  1  0  0  0
 11 25  1  0  0  0
 11 40  1  0  0  0
 12 16  1  0  0  0
 12 41  1  0  0  0
 13 28  2  0  0  0
 13 42  1  0  0  0
 14 15  2  0  0  0
 14 22  1  0  0  0
 14 43  1  0  0  0
 15 18  1  0  0  0
 15 44  1  0  0  0
 16 17  1  0  0  0
 17 20  2  0  0  0
 17 21  1  0  0  0
 18 19  2  0  0  0
 18 45  1  0  0  0
 19 46  1  0  0  0
 20 28  1  0  0  0
 20 47  1  0  0  0
 21 31  2  0  0  0
 22 23  1  0  0  0
 23 30  3  0  0  0
 24 25  1  0  0  0
 24 48  1  0  0  0
 24 49  1  0  0  0
 25 50  1  0  0  0
 25 51  1  0  0  0
 26 27  1  0  0  0
 26 52  1  0  0  0
 27 53  1  0  0  0
M  END
> <s_m_entry_id>
35

> <s_m_entry_name>
7L14_ligand.1

> <s_m_Source_Path>
C:\Users\ifige\Documents\GitHub\WATERS\data\molecules

> <s_m_Source_File>
7L14_ligand.sdf

> <i_m_Source_File_Index>
1

> <s_user_Name>
7L14_ligand

$$$$
